Circuit: * E:\Elektronika\diff_probe\DS100M08KV2\simulacije\charge_pump\charge_pump_notch_recreation.asc

WARNING: Less than two connections to node LOSSES.  This node is used by B3.
WARNING: Less than two connections to node EFFICIENCY.  This node is used by B4.
WARNING: Less than two connections to node U1:U1:UA:TEST.  This node is used by E:U1:U1:UA:TEST.
WARNING: Less than two connections to node U1:U1:UA:VTH_DIFF.  This node is used by E:U1:U1:UA:VTHDIFF.
WARNING: Less than two connections to node U1:U1:UB:TEST.  This node is used by E:U1:U1:UB:TEST.
WARNING: Less than two connections to node U1:U1:UB:VTH_DIFF.  This node is used by E:U1:U1:UB:VTHDIFF.
WARNING: Less than two connections to node U2:U1:UA:TEST.  This node is used by E:U2:U1:UA:TEST.
WARNING: Less than two connections to node U2:U1:UA:VTH_DIFF.  This node is used by E:U2:U1:UA:VTHDIFF.
WARNING: Less than two connections to node U2:U1:UB:TEST.  This node is used by E:U2:U1:UB:TEST.
WARNING: Less than two connections to node U2:U1:UB:VTH_DIFF.  This node is used by E:U2:U1:UB:VTHDIFF.
WARNING: Less than two connections to node U3:U1:UA:TEST.  This node is used by E:U3:U1:UA:TEST.
WARNING: Less than two connections to node U3:U1:UA:VTH_DIFF.  This node is used by E:U3:U1:UA:VTHDIFF.
WARNING: Less than two connections to node U3:U1:UB:TEST.  This node is used by E:U3:U1:UB:TEST.
WARNING: Less than two connections to node U3:U1:UB:VTH_DIFF.  This node is used by E:U3:U1:UB:VTHDIFF.
WARNING: Less than two connections to node U4:U1:UA:TEST.  This node is used by E:U4:U1:UA:TEST.
WARNING: Less than two connections to node U4:U1:UA:VTH_DIFF.  This node is used by E:U4:U1:UA:VTHDIFF.
WARNING: Less than two connections to node U4:U1:UB:TEST.  This node is used by E:U4:U1:UB:TEST.
WARNING: Less than two connections to node U4:U1:UB:VTH_DIFF.  This node is used by E:U4:U1:UB:VTHDIFF.
WARNING: Less than two connections to node U5:U1:UA:TEST.  This node is used by E:U5:U1:UA:TEST.
WARNING: Less than two connections to node U5:U1:UA:VTH_DIFF.  This node is used by E:U5:U1:UA:VTHDIFF.
WARNING: Less than two connections to node U5:U1:UB:TEST.  This node is used by E:U5:U1:UB:TEST.
WARNING: Less than two connections to node U5:U1:UB:VTH_DIFF.  This node is used by E:U5:U1:UB:VTHDIFF.
WARNING: Less than two connections to node U6:U1:UA:TEST.  This node is used by E:U6:U1:UA:TEST.
WARNING: Less than two connections to node U6:U1:UA:VTH_DIFF.  This node is used by E:U6:U1:UA:VTHDIFF.
WARNING: Less than two connections to node U6:U1:UB:TEST.  This node is used by E:U6:U1:UB:TEST.
WARNING: Less than two connections to node U6:U1:UB:VTH_DIFF.  This node is used by E:U6:U1:UB:VTHDIFF.
Per .tran options, skipping operating point for transient analysis.
Changing Tseed to 1.95313e-010
Changing Tseed to 1.95312e-012
Changing Tseed to 1.95312e-009
Changing Tseed to 1.95313e-013
Heightened Def Con from 2.32405e-005 to 2.32445e-005
Heightened Def Con from 8.90801e-005 to 8.90841e-005
Heightened Def Con from 0.000111154 to 0.000111158
Heightened Def Con from 0.000165227 to 0.000165227
Heightened Def Con from 0.000175811 to 0.000175815
Heightened Def Con from 0.000240699 to 0.000240702
Heightened Def Con from 0.000262521 to 0.000262524
Heightened Def Con from 0.000274245 to 0.000274245
Heightened Def Con from 0.000283957 to 0.00028396
Heightened Def Con from 0.000304706 to 0.00030471
Heightened Def Con from 0.0003154 to 0.000315404
Heightened Def Con from 0.00032564 to 0.000325644
Heightened Def Con from 0.000346502 to 0.000346506
Heightened Def Con from 0.000378229 to 0.000378229
Heightened Def Con from 0.000400403 to 0.000400404
Heightened Def Con from 0.000420623 to 0.000420627
Heightened Def Con from 0.000429935 to 0.000429939
Heightened Def Con from 0.000441051 to 0.000441051
Heightened Def Con from 0.000451511 to 0.000451515
Heightened Def Con from 0.000473625 to 0.000473629
Heightened Def Con from 0.000495046 to 0.000495049
Heightened Def Con from 0.000506188 to 0.000506192
Heightened Def Con from 0.000528845 to 0.000528846
Heightened Def Con from 0.000596854 to 0.000596854
Heightened Def Con from 0.000618135 to 0.000618136
Heightened Def Con from 0.000662062 to 0.000662063
Heightened Def Con from 0.000730035 to 0.000730035
Heightened Def Con from 0.000740859 to 0.000740862
Heightened Def Con from 0.000783165 to 0.000783169
Heightened Def Con from 0.000838356 to 0.000838357
Heightened Def Con from 0.000859767 to 0.000859767
Heightened Def Con from 0.000902962 to 0.000902966
Heightened Def Con from 0.000955349 to 0.000955353
Heightened Def Con from 0.000967186 to 0.000967186
Heightened Def Con from 0.000977938 to 0.000977942
Heightened Def Con from 0.00111821 to 0.00111822
Heightened Def Con from 0.00112891 to 0.00112892
Heightened Def Con from 0.00115107 to 0.00115107
Heightened Def Con from 0.00116207 to 0.00116207
Heightened Def Con from 0.00120716 to 0.00120717
Heightened Def Con from 0.00123016 to 0.00123016
Heightened Def Con from 0.00123936 to 0.00123937
Heightened Def Con from 0.00129516 to 0.00129516
Heightened Def Con from 0.00138358 to 0.00138358
Heightened Def Con from 0.0013946 to 0.00139461
Heightened Def Con from 0.00140673 to 0.00140673
Heightened Def Con from 0.00145216 to 0.00145216
Heightened Def Con from 0.00146239 to 0.0014624
Heightened Def Con from 0.00147394 to 0.00147395
Heightened Def Con from 0.00153933 to 0.00153934
Heightened Def Con from 0.00156004 to 0.00156004
Heightened Def Con from 0.00158264 to 0.00158264
Heightened Def Con from 0.00160566 to 0.00160567
Heightened Def Con from 0.00164759 to 0.00164759
Heightened Def Con from 0.00168069 to 0.0016807
Heightened Def Con from 0.00171403 to 0.00171403
Heightened Def Con from 0.00184685 to 0.00184685
Heightened Def Con from 0.00190113 to 0.00190114
Heightened Def Con from 0.00193472 to 0.00193473
Heightened Def Con from 0.0019778 to 0.0019778
Heightened Def Con from 0.00198794 to 0.00198794
Heightened Def Con from 0.00199934 to 0.00199934

Date: Tue Nov 04 17:08:43 2025
Total elapsed time: 8.934 seconds.

tnom = 27
temp = 27
method = trap
totiter = 296605
traniter = 296605
tranpoints = 67337
accept = 49386
rejected = 18009
matrix size = 770
fillins = 285
solver = Normal
Thread vector: 59.7/11.5[16] 2.1/1.0[11] 26.9/4.0[16] 0.7/0.9[1]  2592/500
Matrix Compiler1: 32.66 KB object code size  6.9/2.7/[1.3]
Matrix Compiler2: 48.89 KB object code size  3.0/4.4/[1.4]

