Circuit: * C:\users\ostoja\Desktop\Elektronika\diff_sonde\DS100M08KV2\simulacije\charge_pump\complete_linear_regulator.asc

Limiting rise time of source v1 to 2e-006
Limiting fall time of source v1 to 2e-006
Limiting rise time of source v5 to 2e-006
Limiting fall time of source v5 to 2e-006
Direct Newton iteration for .op point succeeded.
.step vbat=3.2
.step vbat=3.5
.step vbat=3.6
.step vbat=3.9
.step vbat=4.2

Date: Sat Oct 25 16:26:47 2025
Total elapsed time: 0.423 seconds.

tnom = 27
temp = 27
method = trap
totiter = 18580
traniter = 18572
tranpoints = 9287
accept = 7536
rejected = 1751
matrix size = 22
fillins = 7
solver = Normal
Matrix Compiler1:     113 opcodes  0.3/[0.2]/0.2
Matrix Compiler2: off  [0.2]/0.2/0.2

