Circuit: * E:\Elektronika\diff_probe\DS100M08KV2\simulacije\charge_pump\complete_charge_pump_electrolytic.asc

WARNING: Less than two connections to node LOSSES.  This node is used by B3.
WARNING: Less than two connections to node EFFICIENCY.  This node is used by B4.
WARNING: Less than two connections to node U1:U1:UA:TEST.  This node is used by E:U1:U1:UA:TEST.
WARNING: Less than two connections to node U1:U1:UA:VTH_DIFF.  This node is used by E:U1:U1:UA:VTHDIFF.
WARNING: Less than two connections to node U1:U1:UB:TEST.  This node is used by E:U1:U1:UB:TEST.
WARNING: Less than two connections to node U1:U1:UB:VTH_DIFF.  This node is used by E:U1:U1:UB:VTHDIFF.
WARNING: Less than two connections to node U2:U1:UA:TEST.  This node is used by E:U2:U1:UA:TEST.
WARNING: Less than two connections to node U2:U1:UA:VTH_DIFF.  This node is used by E:U2:U1:UA:VTHDIFF.
WARNING: Less than two connections to node U2:U1:UB:TEST.  This node is used by E:U2:U1:UB:TEST.
WARNING: Less than two connections to node U2:U1:UB:VTH_DIFF.  This node is used by E:U2:U1:UB:VTHDIFF.
WARNING: Less than two connections to node U3:U1:UA:TEST.  This node is used by E:U3:U1:UA:TEST.
WARNING: Less than two connections to node U3:U1:UA:VTH_DIFF.  This node is used by E:U3:U1:UA:VTHDIFF.
WARNING: Less than two connections to node U3:U1:UB:TEST.  This node is used by E:U3:U1:UB:TEST.
WARNING: Less than two connections to node U3:U1:UB:VTH_DIFF.  This node is used by E:U3:U1:UB:VTHDIFF.
WARNING: Less than two connections to node U4:U1:UA:TEST.  This node is used by E:U4:U1:UA:TEST.
WARNING: Less than two connections to node U4:U1:UA:VTH_DIFF.  This node is used by E:U4:U1:UA:VTHDIFF.
WARNING: Less than two connections to node U4:U1:UB:TEST.  This node is used by E:U4:U1:UB:TEST.
WARNING: Less than two connections to node U4:U1:UB:VTH_DIFF.  This node is used by E:U4:U1:UB:VTHDIFF.
WARNING: Less than two connections to node U5:U1:UA:TEST.  This node is used by E:U5:U1:UA:TEST.
WARNING: Less than two connections to node U5:U1:UA:VTH_DIFF.  This node is used by E:U5:U1:UA:VTHDIFF.
WARNING: Less than two connections to node U5:U1:UB:TEST.  This node is used by E:U5:U1:UB:TEST.
WARNING: Less than two connections to node U5:U1:UB:VTH_DIFF.  This node is used by E:U5:U1:UB:VTHDIFF.
WARNING: Less than two connections to node U6:U1:UA:TEST.  This node is used by E:U6:U1:UA:TEST.
WARNING: Less than two connections to node U6:U1:UA:VTH_DIFF.  This node is used by E:U6:U1:UA:VTHDIFF.
WARNING: Less than two connections to node U6:U1:UB:TEST.  This node is used by E:U6:U1:UB:TEST.
WARNING: Less than two connections to node U6:U1:UB:VTH_DIFF.  This node is used by E:U6:U1:UB:VTHDIFF.
WARNING: Less than two connections to node N011.  This node is used by D5.
Per .tran options, skipping operating point for transient analysis.
.step esr=4
Changing Tseed to 1.95313e-010
Changing Tseed to 1.95312e-012
Changing Tseed to 1.95312e-009
Changing Tseed to 1.95313e-013
Heightened Def Con from 5.02196e-005 to 5.02236e-005
Heightened Def Con from 8.35558e-005 to 8.35561e-005
Heightened Def Con from 0.000107405 to 0.000107405
Heightened Def Con from 0.000119655 to 0.000119659
Heightened Def Con from 0.000130594 to 0.000130594
Heightened Def Con from 0.000130594 to 0.000130595
Heightened Def Con from 0.000143041 to 0.000143045
Heightened Def Con from 0.000154168 to 0.000154168
Heightened Def Con from 0.000154168 to 0.000154169
Heightened Def Con from 0.000167303 to 0.000167307
Heightened Def Con from 0.000178391 to 0.000178392
Heightened Def Con from 0.000201281 to 0.000201281
Heightened Def Con from 0.000213097 to 0.000213101
Heightened Def Con from 0.000224174 to 0.000224174
Heightened Def Con from 0.000224174 to 0.000224175
Heightened Def Con from 0.000248073 to 0.000248074
Heightened Def Con from 0.000260459 to 0.000260463
Heightened Def Con from 0.000271609 to 0.000271609
Heightened Def Con from 0.000293781 to 0.000293781
Heightened Def Con from 0.000293781 to 0.000293782
Heightened Def Con from 0.000316645 to 0.000316646
Heightened Def Con from 0.00032776 to 0.000327764
Heightened Def Con from 0.000338214 to 0.000338214
Heightened Def Con from 0.000338313 to 0.000338317
Heightened Def Con from 0.000351357 to 0.000351361
Heightened Def Con from 0.000363001 to 0.000363001
Heightened Def Con from 0.000375058 to 0.000375062
Heightened Def Con from 0.000385876 to 0.000385877
Heightened Def Con from 0.000385975 to 0.000385979
Heightened Def Con from 0.000407967 to 0.000407967
Heightened Def Con from 0.000408066 to 0.00040807
Heightened Def Con from 0.000420054 to 0.000420058
Heightened Def Con from 0.000431256 to 0.000431256
Heightened Def Con from 0.000431256 to 0.000431257
Heightened Def Con from 0.000456388 to 0.000456388
Heightened Def Con from 0.000456389 to 0.000456393
Heightened Def Con from 0.000467901 to 0.000467905
Heightened Def Con from 0.000478543 to 0.000478543
Heightened Def Con from 0.000491767 to 0.00049177
Heightened Def Con from 0.00050311 to 0.00050311
Heightened Def Con from 0.000526639 to 0.000526639
Heightened Def Con from 0.000526639 to 0.00052664
Heightened Def Con from 0.000538594 to 0.000538598
Heightened Def Con from 0.000549487 to 0.000549487
Heightened Def Con from 0.000572863 to 0.000572863
Heightened Def Con from 0.000595843 to 0.000595844
Heightened Def Con from 0.000608965 to 0.000608968
Heightened Def Con from 0.000620389 to 0.00062039
Heightened Def Con from 0.000631975 to 0.000631979
Heightened Def Con from 0.000642619 to 0.000642619
Heightened Def Con from 0.000655095 to 0.000655099
Heightened Def Con from 0.000666296 to 0.000666297
Heightened Def Con from 0.000690111 to 0.000690111
Heightened Def Con from 0.000712563 to 0.000712563
Heightened Def Con from 0.000734788 to 0.000734792
Heightened Def Con from 0.000758746 to 0.000758746
Heightened Def Con from 0.000758747 to 0.000758747
Heightened Def Con from 0.000780395 to 0.000780396
Heightened Def Con from 0.000802451 to 0.000802452
Heightened Def Con from 0.000813654 to 0.000813658
Heightened Def Con from 0.000824724 to 0.000824724
Heightened Def Con from 0.00083643 to 0.000836434
Heightened Def Con from 0.000847035 to 0.000847036
Heightened Def Con from 0.0008708 to 0.0008708
Heightened Def Con from 0.0008708 to 0.000870801
Heightened Def Con from 0.000882886 to 0.00088289
Heightened Def Con from 0.000893953 to 0.000893954
Heightened Def Con from 0.0009071 to 0.000907104
Heightened Def Con from 0.000918246 to 0.000918246
Heightened Def Con from 0.000918247 to 0.000918247
Heightened Def Con from 0.000930593 to 0.000930597
Heightened Def Con from 0.000941506 to 0.000941506
Heightened Def Con from 0.000941506 to 0.000941507
Heightened Def Con from 0.000963826 to 0.000963827
Heightened Def Con from 0.000986595 to 0.000986596
Heightened Def Con from 0.00099849 to 0.000998494
Heightened Def Con from 0.00100935 to 0.00100935
Heightened Def Con from 0.00100935 to 0.00100935
Heightened Def Con from 0.00102245 to 0.00102246
Heightened Def Con from 0.00103421 to 0.00103421
Heightened Def Con from 0.00104579 to 0.00104579
Heightened Def Con from 0.00105639 to 0.00105639
Heightened Def Con from 0.00107969 to 0.00107969
Heightened Def Con from 0.00107969 to 0.00107969
Heightened Def Con from 0.00110332 to 0.00110332
Heightened Def Con from 0.00110332 to 0.00110332
Heightened Def Con from 0.00110332 to 0.00110332
Heightened Def Con from 0.00111575 to 0.00111576
Heightened Def Con from 0.00112678 to 0.00112678
Heightened Def Con from 0.00113975 to 0.00113976
Heightened Def Con from 0.00115126 to 0.00115126
Heightened Def Con from 0.00115126 to 0.00115126
Heightened Def Con from 0.0011635 to 0.0011635
Heightened Def Con from 0.0011744 to 0.0011744
Heightened Def Con from 0.00118659 to 0.0011866
Heightened Def Con from 0.00119728 to 0.00119728
Heightened Def Con from 0.00122157 to 0.00122157
Heightened Def Con from 0.00122157 to 0.00122157
Heightened Def Con from 0.00123363 to 0.00123363
Heightened Def Con from 0.00124463 to 0.00124463
Heightened Def Con from 0.00124463 to 0.00124463
Heightened Def Con from 0.001256 to 0.00125601
Heightened Def Con from 0.00126643 to 0.00126643
Heightened Def Con from 0.00127773 to 0.00127773
Heightened Def Con from 0.00128806 to 0.00128806
Heightened Def Con from 0.00131007 to 0.00131007
Heightened Def Con from 0.00133255 to 0.00133255
Heightened Def Con from 0.00135599 to 0.00135599
Heightened Def Con from 0.00136831 to 0.00136832
Heightened Def Con from 0.0013792 to 0.0013792
Heightened Def Con from 0.00139131 to 0.00139131
Heightened Def Con from 0.00140224 to 0.00140224
Heightened Def Con from 0.00140224 to 0.00140224
Heightened Def Con from 0.00141425 to 0.00141426
Heightened Def Con from 0.00142527 to 0.00142527
Heightened Def Con from 0.00143691 to 0.00143692
Heightened Def Con from 0.00144733 to 0.00144733
Heightened Def Con from 0.00147058 to 0.00147058
Heightened Def Con from 0.00147058 to 0.00147058
Heightened Def Con from 0.0014942 to 0.0014942
Heightened Def Con from 0.00151605 to 0.00151605
Heightened Def Con from 0.00151605 to 0.00151605
Heightened Def Con from 0.0015291 to 0.0015291
Heightened Def Con from 0.00154027 to 0.00154027
Heightened Def Con from 0.00155231 to 0.00155231
Heightened Def Con from 0.00156347 to 0.00156347
Heightened Def Con from 0.00158596 to 0.00158596
Heightened Def Con from 0.00160916 to 0.00160916
Heightened Def Con from 0.00160916 to 0.00160916
Heightened Def Con from 0.00163285 to 0.00163285
Heightened Def Con from 0.00163285 to 0.00163285
Heightened Def Con from 0.00164425 to 0.00164425
Heightened Def Con from 0.00165501 to 0.00165501
Heightened Def Con from 0.00166726 to 0.00166727
Heightened Def Con from 0.00167843 to 0.00167843
Heightened Def Con from 0.00167843 to 0.00167843
Heightened Def Con from 0.00167843 to 0.00167843
Heightened Def Con from 0.00169157 to 0.00169157
Heightened Def Con from 0.00170295 to 0.00170295
Heightened Def Con from 0.00170295 to 0.00170295
Heightened Def Con from 0.00172504 to 0.00172504
Heightened Def Con from 0.00173764 to 0.00173765
Heightened Def Con from 0.00174909 to 0.00174909
Heightened Def Con from 0.00176178 to 0.00176178
Heightened Def Con from 0.0017729 to 0.0017729
Heightened Def Con from 0.00178563 to 0.00178564
Heightened Def Con from 0.00179678 to 0.00179678
Heightened Def Con from 0.00180824 to 0.00180824
Heightened Def Con from 0.00181861 to 0.00181861
Heightened Def Con from 0.00181861 to 0.00181861
Heightened Def Con from 0.0018304 to 0.0018304
Heightened Def Con from 0.00184145 to 0.00184145
Heightened Def Con from 0.00185407 to 0.00185407
Heightened Def Con from 0.00186507 to 0.00186507
Heightened Def Con from 0.00188804 to 0.00188804
Heightened Def Con from 0.00190989 to 0.00190989
Heightened Def Con from 0.00193157 to 0.00193157
Heightened Def Con from 0.00194408 to 0.00194408
Heightened Def Con from 0.00195578 to 0.00195578
Heightened Def Con from 0.00197932 to 0.00197932
.step esr=1e+006

Date: Tue Nov 04 17:06:03 2025
Total elapsed time: 10.424 seconds.

tnom = 27
temp = 27
method = trap
totiter = 79054
traniter = 79054
tranpoints = 18316
accept = 13221
rejected = 5147
matrix size = 771
fillins = 299
solver = Normal
Thread vector: 75.7/10.2[16] 2.3/1.3[10] 28.8/4.3[16] 0.8/1.2[1]  2592/500
Matrix Compiler1: 33.24 KB object code size  6.9/2.8/[1.4]
Matrix Compiler2: 49.11 KB object code size  3.1/4.5/[1.8]

