Circuit: * C:\users\ostoja\Desktop\Elektronika\diff_sonde\DS100M08KV2\simulacije\charge_pump\complete.asc

WARNING: Less than two connections to node LOSSES.  This node is used by B3.
WARNING: Less than two connections to node EFFICIENCY.  This node is used by B4.
WARNING: Less than two connections to node U7:U1:UA:TEST.  This node is used by E:U7:U1:UA:TEST.
WARNING: Less than two connections to node U7:U1:UA:VTH_DIFF.  This node is used by E:U7:U1:UA:VTHDIFF.
WARNING: Less than two connections to node U7:U1:UB:TEST.  This node is used by E:U7:U1:UB:TEST.
WARNING: Less than two connections to node U7:U1:UB:VTH_DIFF.  This node is used by E:U7:U1:UB:VTHDIFF.
Instance "m:u8:2": Length shorter than recommended for a level 3 MOSFET.
Instance "m:m2:2": Length shorter than recommended for a level 3 MOSFET.
Instance "m:u6:2": Length shorter than recommended for a level 3 MOSFET.
Instance "m:u5:2": Length shorter than recommended for a level 3 MOSFET.
Singular matrix:  Check nodes e:u7:u1:outpd:tpdnorm#branch and u7:u1:outpd:ntpdnorm
   Iteration No. 5
Direct Newton iteration failed to find .op point.  (Use ".option noopiter" to skip.)
Starting Gmin stepping
Gmin = 10
Gmin = 1.07374
vernier = 0.5
vernier = 0.25
vernier = 0.125
vernier = 0.0625
Gmin = 1.02494
vernier = 0.03125
vernier = 0.015625
vernier = 0.0078125
vernier = 0.00390625
Gmin = 1.01995
vernier = 0.00195313
vernier = 0.000976563
vernier = 0.000488281
Gmin = 0
Gmin stepping failed

Starting source stepping with srcstepmethod=0
Source Step = 3.0303%
Source Step = 33.3333%
Source Step = 63.6364%
Source Step = 93.9394%
Source stepping succeeded in finding the operating point.

Heightened Def Con from 0.000610936 to 0.000610936
Heightened Def Con from 0.000610936 to 0.000610936
Heightened Def Con from 0.000610936 to 0.000610936
Heightened Def Con from 0.000610936 to 0.000610936
Heightened Def Con from 0.000610936 to 0.000610936
Heightened Def Con from 0.000610936 to 0.000610936
Heightened Def Con from 0.000610936 +++to 0.000610936
Heightened Def Con from 0.000610936 +++++to 0.000610936
Heightened Def Con from 0.000610936 +++++++to 0.000610936
Heightened Def Con from 0.000610936 +++++++to 0.000610936
Heightened Def Con from 0.000610936 ++++++++to 0.000610936
Heightened Def Con from 0.000610936 ++++++++to 0.000610936
Heightened Def Con from 0.000610936 ++++++++to 0.000610936
Heightened Def Con from 0.000610936 ++to 0.000610936
Heightened Def Con from 0.000610936 ++++++to 0.000610936
Heightened Def Con from 0.000610936 ++++++++to 0.000610936
Heightened Def Con from 0.000610936 +++++++++to 0.000610936
Heightened Def Con from 0.000610936 +to 0.000610936
Heightened Def Con from 0.000610936 to 0.000610936
Heightened Def Con from 0.000610936 to 0.000610936
Heightened Def Con from 0.000610936 ++++++to 0.000610936
Heightened Def Con from 0.000610936 ++++to 0.000610936
Heightened Def Con from 0.000610936 ++++++++to 0.000610936
Heightened Def Con from 0.000610936 ++++++++to 0.000610936
Heightened Def Con from 0.000610936 ++++to 0.000610936
Heightened Def Con from 0.000610936 ++++++++to 0.000610936
Heightened Def Con from 0.000610936 ++++++++to 0.000610936
Heightened Def Con from 0.000610936 ++++++++to 0.000610936
Heightened Def Con from 0.000610936 +++++++++to 0.000610936
Heightened Def Con from 0.000610936 ++++++++to 0.000610936
Heightened Def Con from 0.000610936 ++++++++to 0.000610936
Heightened Def Con from 0.000610936 +++++++++to 0.000610936
Heightened Def Con from 0.000610936 +++++++++to 0.000610936
Heightened Def Con from 0.000610936 +++++++++to 0.000610936
Heightened Def Con from 0.000610936 +++++++++to 0.000610936
Heightened Def Con from 0.000610936 ++to 0.000610936
Heightened Def Con from 0.000610936 +++++++++to 0.000610936
Heightened Def Con from 0.000610936 +++++++++to 0.000610936
Heightened Def Con from 0.000610936 +++++++++to 0.000610936
Heightened Def Con from 0.000610936 +++++++++to 0.000610936
Heightened Def Con from 0.000610936 +++to 0.000610936
Heightened Def Con from 0.000610936 +++++++++to 0.000610936
Heightened Def Con from 0.000610936 +++++++++to 0.000610936
Heightened Def Con from 0.000610936 ++++++++++to 0.000610936
Heightened Def Con from 0.000610936 to 0.000610936
Heightened Def Con from 0.000610936 +to 0.000610936
Heightened Def Con from 0.000610936 +to 0.000610936
Heightened Def Con from 0.000610936 to 0.000610936
Heightened Def Con from 0.000610936 to 0.000610936
Heightened Def Con from 0.000610936 ++++++to 0.000610936
Heightened Def Con from 0.000610936 +++++++to 0.000610936
Heightened Def Con from 0.000610936 to 0.000610936
Heightened Def Con from 0.000610936 +++++++to 0.000610936
Heightened Def Con from 0.000610936 +++to 0.000610936
Heightened Def Con from 0.000610936 ++++++++to 0.000610936
Heightened Def Con from 0.000610936 to 0.000610936
Heightened Def Con from 0.000610936 +++++++++to 0.000610936
Heightened Def Con from 0.000610936 ++++++++++to 0.000610936
Heightened Def Con from 0.000610936 +++++++to 0.000610936
Heightened Def Con from 0.000610936 to 0.000610936
Heightened Def Con from 0.000610936 to 0.000610936
Heightened Def Con from 0.000610936 ++++++to 0.000610936
Heightened Def Con from 0.000610936 ++++++++to 0.000610936
Heightened Def Con from 0.000610936 ++++++++to 0.000610936
Heightened Def Con from 0.000610936 +to 0.000610936
Heightened Def Con from 0.000610936 ++++++to 0.000610936
Heightened Def Con from 0.000610936 ++++++to 0.000610936
Heightened Def Con from 0.000610936 ++to 0.000610936
Heightened Def Con from 0.000610936 +++++to 0.000610936
Heightened Def Con from 0.000610936 ++++++to 0.000610936
Heightened Def Con from 0.000610936 ++++++to 0.000610936
Heightened Def Con from 0.000610936 ++++++++++to 0.000610936
Heightened Def Con from 0.000610936 +++++++++to 0.000610936
Heightened Def Con from 0.000610936 +++to 0.000610936
Heightened Def Con from 0.000610936 +++++++++to 0.000610936
Heightened Def Con from 0.000610936 +++++++++to 0.000610936
Heightened Def Con from 0.000610936 ++++++++++to 0.000610936
Heightened Def Con from 0.000610936 ++++++++++to 0.000610936
Heightened Def Con from 0.000610936 ++++++++++to 0.000610936
Heightened Def Con from 0.000610936 +++++++to 0.000610936
Heightened Def Con from 0.000610936 +++++++++to 0.000610936
Heightened Def Con from 0.000610936 ++++++++++to 0.000610936
Heightened Def Con from 0.000610936 +++++++++to 0.000610936
Heightened Def Con from 0.000610936 ++++++++++to 0.000610936
Heightened Def Con from 0.000610936 +++++++++++to 0.000610936
Heightened Def Con from 0.000610936 ++to 0.000610936
Heightened Def Con from 0.000610936 to 0.000610936
Heightened Def Con from 0.000610936 to 0.000610936
Heightened Def Con from 0.000610936 +++++to 0.000610936
Heightened Def Con from 0.000610936 +++++to 0.000610936
Heightened Def Con from 0.000610936 to 0.000610936
Heightened Def Con from 0.000610936 +to 0.000610936
Heightened Def Con from 0.000610936 ++++++++to 0.000610936
Heightened Def Con from 0.000610936 ++++++to 0.000610936
Heightened Def Con from 0.000610936 ++++++++to 0.000610936
Heightened Def Con from 0.000610936 ++++++++to 0.000610936
Heightened Def Con from 0.000610936 +++++++++to 0.000610936
Heightened Def Con from 0.000610936 +++++++++to 0.000610936
Heightened Def Con from 0.000610936 ++to 0.000610936
Heightened Def Con from 0.000610936 +++++++++to 0.000610936
Heightened Def Con from 0.000610936 +++++++++to 0.000610936
Heightened Def Con from 0.000610936 +to 0.000610936
Heightened Def Con from 0.000610936 to 0.000610936
Heightened Def Con from 0.000610936 +++++++++to 0.000610936
Heightened Def Con from 0.000610936 ++++++++++to 0.000610936
Heightened Def Con from 0.000610936 +to 0.000610936
Heightened Def Con from 0.000610936 ++++++++++to 0.000610936
Heightened Def Con from 0.000610936 +++++++to 0.000610936
Heightened Def Con from 0.000610936 to 0.000610936
Heightened Def Con from 0.000610936 +++++++to 0.000610936
Heightened Def Con from 0.000610936 ++++++++++to 0.000610936
Heightened Def Con from 0.000610936 ++++++++++to 0.000610936
Heightened Def Con from 0.000610936 +++++to 0.000610936
Heightened Def Con from 0.000610936 +++++++++++to 0.000610936
Heightened Def Con from 0.000610936 to 0.000610936
Heightened Def Con from 0.000610936 to 0.000610936
Heightened Def Con from 0.000610936 to 0.000610936
Heightened Def Con from 0.000610936 +to 0.000610936
Heightened Def Con from 0.000610936 +++++++to 0.000610936
Heightened Def Con from 0.000610936 ++++++to 0.000610936
Heightened Def Con from 0.000610936 ++++to 0.000610936
Heightened Def Con from 0.000610936 ++++++++to 0.000610936
Heightened Def Con from 0.000610936 +++++++to 0.000610936
Heightened Def Con from 0.000610936 +++++++++to 0.000610936
Heightened Def Con from 0.000610936 +to 0.000610936
Heightened Def Con from 0.000610936 +++++++++to 0.000610936
Heightened Def Con from 0.000610936 ++++++++to 0.000610936
Heightened Def Con from 0.000610936 +++++++++to 0.000610936
Heightened Def Con from 0.000610936 +++++++++to 0.000610936
Heightened Def Con from 0.000610936 ++++++++to 0.000610936
Heightened Def Con from 0.000610936 +++++++++to 0.000610936
Heightened Def Con from 0.000610936 +++++++++to 0.000610936
Heightened Def Con from 0.000610936 ++++++++++to 0.000610936
Heightened Def Con from 0.000610936 ++++++++++to 0.000610936
Heightened Def Con from 0.000610936 +++++++++++to 0.000610936
Heightened Def Con from 0.000610936 ++++to 0.000610936
Heightened Def Con from 0.000610936 ++to 0.000610936
Heightened Def Con from 0.000610936 ++to 0.000610936
Heightened Def Con from 0.000610936 to 0.000610936
Heightened Def Con from 0.000610936 ++++++to 0.000610936
Heightened Def Con from 0.000610936 +++++++++to 0.000610936
Heightened Def Con from 0.000610936 ++++++++to 0.000610936
Heightened Def Con from 0.000610936 ++++++++to 0.000610936
Heightened Def Con from 0.000610936 +++++++++to 0.000610936
Heightened Def Con from 0.000610936 +++++++++to 0.000610936
Heightened Def Con from 0.000610936 ++to 0.000610936
Heightened Def Con from 0.000610936 +++++to 0.000610936
Heightened Def Con from 0.000610936 to 0.000610936
Heightened Def Con from 0.000610936 ++++to 0.000610936
Heightened Def Con from 0.000610936 +++++to 0.000610936
Heightened Def Con from 0.000610936 +++++++++to 0.000610936
Heightened Def Con from 0.000610936 ++++++++++to 0.000610936
Heightened Def Con from 0.000610936 +++++++++to 0.000610936
Heightened Def Con from 0.000610936 ++++++++++to 0.000610936
Heightened Def Con from 0.000610936 ++++++++++to 0.000610936
Heightened Def Con from 0.000610936 ++++++++++to 0.000610936
Heightened Def Con from 0.000610936 ++++to 0.000610936
Heightened Def Con from 0.000610936 +to 0.000610936
Heightened Def Con from 0.000610936 ++++to 0.000610936
Heightened Def Con from 0.000610936 ++++++++++to 0.000610936
Heightened Def Con from 0.000610936 +++++to 0.000610936
Heightened Def Con from 0.000610936 ++++++++++to 0.000610936
Heightened Def Con from 0.000610936 ++++++++++to 0.000610936
Heightened Def Con from 0.000610936 +++++++++++to 0.000610936
Heightened Def Con from 0.000610936 ++++++++++++to 0.000610936
Heightened Def Con from 0.000610936 to 0.000610936
Heightened Def Con from 0.000610936 +++to 0.000610936
Heightened Def Con from 0.000610936 +++to 0.000610936
Heightened Def Con from 0.000610936 ++++++++to 0.000610936
Heightened Def Con from 0.000610936 ++++++++to 0.000610936
Heightened Def Con from 0.000610936 +++++++++to 0.000610936
Heightened Def Con from 0.000610936 ++++++++++to 0.000610936
Heightened Def Con from 0.000610936 ++++++++++to 0.000610936
Heightened Def Con from 0.000610936 ++to 0.000610936
Heightened Def Con from 0.000610936 +to 0.000610936
Heightened Def Con from 0.000610936 +++++++++++to 0.000610936
Heightened Def Con from 0.000610936 +++to 0.000610936
Heightened Def Con from 0.000610936 +++++++++to 0.000610936
Heightened Def Con from 0.000610936 +++++++++++to 0.000610936
Heightened Def Con from 0.000610936 +++++++++++to 0.000610936
Heightened Def Con from 0.000610936 ++++++++++to 0.000610936
Heightened Def Con from 0.000610936 +++++++++++to 0.000610936
Heightened Def Con from 0.000610936 +++to 0.000610936
Heightened Def Con from 0.000610936 to 0.000610936
Heightened Def Con from 0.000610936 +++++++++++to 0.000610936
Heightened Def Con from 0.000610936 ++++to 0.000610936
Heightened Def Con from 0.000610936 +++++++++++to 0.000610936
Heightened Def Con from 0.000610936 ++++++++++++to 0.000610936
Heightened Def Con from 0.000610936 ++++++++++++to 0.000610936
Heightened Def Con from 0.000610936 ++++++++++to 0.000610936
Heightened Def Con from 0.000610936 +++++++++++to 0.000610936
Heightened Def Con from 0.000610936 ++++++to 0.000610936
Heightened Def Con from 0.000610936 ++++++++++++to 0.000610936
Heightened Def Con from 0.000610936 ++++++++++++to 0.000610936
Heightened Def Con from 0.000610936 ++++++++++++to 0.000610936
Heightened Def Con from 0.000610936 ++++++++++++to 0.000610936
Heightened Def Con from 0.000610936 ++++++++++++to 0.000610936
Heightened Def Con from 0.000610936 ++++++++++++to 0.000610936
Heightened Def Con from 0.000610936 +++++++++++++to 0.000610936
Heightened Def Con from 0.000610936 to 0.000610936
Heightened Def Con from 0.000610936 +++++++to 0.000610936
Heightened Def Con from 0.000610936 ++++++++++to 0.000610936
Heightened Def Con from 0.000610936 ++++++++++to 0.000610936
Heightened Def Con from 0.000610936 +++++++++++to 0.000610936
Heightened Def Con from 0.000610936 +++++++++++to 0.000610936
Heightened Def Con from 0.000610936 ++++++to 0.000610936
Heightened Def Con from 0.000610936 +++++++++++to 0.000610936
Heightened Def Con from 0.000610936 +++++++++++to 0.000610936
Heightened Def Con from 0.000610936 ++++++++++++to 0.000610936
Heightened Def Con from 0.000610936 ++++++++++++to 0.000610936
Heightened Def Con from 0.000610936 ++++++++++++to 0.000610936
Heightened Def Con from 0.000610936 +++++++++++++to 0.000610936
Heightened Def Con from 0.000610936 +++++++++to 0.000610936
Heightened Def Con from 0.000610936 ++++++++++to 0.000610936
Heightened Def Con from 0.000610936 ++++++++++to 0.000610936
Heightened Def Con from 0.000610936 +++++++to 0.000610936
Heightened Def Con from 0.000610936 +++++++++++to 0.000610936
Heightened Def Con from 0.000610936 +++++++++++to 0.000610936
Heightened Def Con from 0.000610936 +++++++++++to 0.000610936
Heightened Def Con from 0.000610936 ++++++++++++to 0.000610936
Heightened Def Con from 0.000610936 ++++++++++++to 0.000610936
Heightened Def Con from 0.000610936 ++++++++++++to 0.000610936
Heightened Def Con from 0.000610936 ++++++++++++to 0.000610936
Heightened Def Con from 0.000610936 ++++++++++++to 0.000610936
Heightened Def Con from 0.000610936 ++++++++++++to 0.000610936
Heightened Def Con from 0.000610936 ++++++++++++to 0.000610936
Heightened Def Con from 0.000610936 +++++++++++++to 0.000610936
Heightened Def Con from 0.000610936 to 0.000610936
Heightened Def Con from 0.000610936 ++++++++++to 0.000610936
Heightened Def Con from 0.000610936 +++++++++to 0.000610936
Heightened Def Con from 0.000610936 ++++++++++to 0.000610936
Heightened Def Con from 0.000610936 ++++++++++to 0.000610936
Heightened Def Con from 0.000610936 ++++++++++to 0.000610936
Heightened Def Con from 0.000610936 +++++++++++to 0.000610936
Heightened Def Con from 0.000610936 +++++++++++to 0.000610936
Heightened Def Con from 0.000610936 ++++++++++++to 0.000610936
Heightened Def Con from 0.000610936 ++++++++++++to 0.000610936
Heightened Def Con from 0.000610936 +++++++++++to 0.000610936
Heightened Def Con from 0.000610936 ++++++++++++to 0.000610936
Heightened Def Con from 0.000610936 +++++++++++++to 0.000610936
Heightened Def Con from 0.000610936 to 0.000610936
Heightened Def Con from 0.000610936 to 0.000610936
Heightened Def Con from 0.000610936 to 0.000610936
Heightened Def Con from 0.000610936 ++++++++++to 0.000610936
Heightened Def Con from 0.000610936 +++++++++++to 0.000610936
Heightened Def Con from 0.000610936 +++++++++++to 0.000610936
Heightened Def Con from 0.000610936 ++++++++++++to 0.000610936
Heightened Def Con from 0.000610936 ++++++++++++to 0.000610936
Heightened Def Con from 0.000610936 +++++++++++to 0.000610936
Heightened Def Con from 0.000610936 ++++++++++++to 0.000610936
Heightened Def Con from 0.000610936 +++++++++++to 0.000610936
Heightened Def Con from 0.000610936 ++++++++++++to 0.000610936
Heightened Def Con from 0.000610936 ++++++++++++to 0.000610936
Heightened Def Con from 0.000610936 +++++++++++++to 0.000610936
Heightened Def Con from 0.000610936 to 0.000610936
Heightened Def Con from 0.000610936 ++++++++++to 0.000610936
Heightened Def Con from 0.000610936 ++++++++++to 0.000610936
Heightened Def Con from 0.000610936 +++++++to 0.000610936
Heightened Def Con from 0.000610936 ++++++++++to 0.000610936
Heightened Def Con from 0.000610936 +++++++++++to 0.000610936
Heightened Def Con from 0.000610936 ++++++++++to 0.000610936
Heightened Def Con from 0.000610936 +++++++++++to 0.000610936
Heightened Def Con from 0.000610936 +++++++++to 0.000610936
Heightened Def Con from 0.000610936 +++++++++++to 0.000610936
Heightened Def Con from 0.000610936 +++++++++++to 0.000610936
Heightened Def Con from 0.000610936 +++++++++++++to 0.000610936
Heightened Def Con from 0.000610936 +++++++++++to 0.000610936
Heightened Def Con from 0.000610936 +++++++++++to 0.000610936
Heightened Def Con from 0.000610936 +++++++++to 0.000610936
Heightened Def Con from 0.000610936 +++++++++++to 0.000610936
Heightened Def Con from 0.000610936 ++++++++++++to 0.000610936
Heightened Def Con from 0.000610936 ++++++++++++to 0.000610936
Heightened Def Con from 0.000610936 ++++++++++++to 0.000610936
Heightened Def Con from 0.000610936 ++++++++++++to 0.000610936
Heightened Def Con from 0.000610936 ++++++++++++to 0.000610936
Heightened Def Con from 0.000610936 ++++++++++++to 0.000610936
Heightened Def Con from 0.000610936 ++++++++++++to 0.000610936
Heightened Def Con from 0.000610936 ++++++++++++to 0.000610936
Heightened Def Con from 0.000610936 +++++++++++++to 0.000610936
Heightened Def Con from 0.000610936 +++++++++++++to 0.000610936
Heightened Def Con from 0.000610936 +++++++++++++to 0.000610936
Heightened Def Con from 0.000610936 +++++++++++++to 0.000610936
Heightened Def Con from 0.000610936 +++++++++++++to 0.000610936
Heightened Def Con from 0.000610936 +++++++++++++to 0.000610936
Heightened Def Con from 0.000610936 +++++++++++++to 0.000610936
Heightened Def Con from 0.000610936 +++++++++++++to 0.000610936
Heightened Def Con from 0.000610936 +++++++++++++to 0.000610936
Heightened Def Con from 0.000610936 +++++++++++++to 0.000610936
Heightened Def Con from 0.000610936 ++++++++++++++to 0.000610936
Heightened Def Con from 0.000610936 to 0.000610936
Heightened Def Con from 0.000610936 to 0.000610936
Heightened Def Con from 0.000610936 to 0.000610936
Heightened Def Con from 0.000610936 to 0.000610936
Heightened Def Con from 0.000610936 +++++++to 0.000610936
Heightened Def Con from 0.000610936 +++++++to 0.000610936
Heightened Def Con from 0.000610936 ++++++++to 0.000610936
Heightened Def Con from 0.000610936 +++++++++++to 0.000610936
Heightened Def Con from 0.000610936 ++++to 0.000610936
Heightened Def Con from 0.000610936 +++++++++++to 0.000610936
Heightened Def Con from 0.000610936 ++++++++++to 0.000610936
Heightened Def Con from 0.000610936 to 0.000610936
Heightened Def Con from 0.000610936 ++++++++++to 0.000610936
Heightened Def Con from 0.000610936 to 0.000610936
Heightened Def Con from 0.000610936 +++++++++++to 0.000610936
Heightened Def Con from 0.000610936 ++++++++++++to 0.000610936
Heightened Def Con from 0.000610936 ++to 0.000610936
Heightened Def Con from 0.000610936 +to 0.000610936
Heightened Def Con from 0.000610936 +++to 0.000610936
Heightened Def Con from 0.000610936 ++++++++++++to 0.000610936
Heightened Def Con from 0.000610936 ++++++++++++to 0.000610936
Heightened Def Con from 0.000610936 ++++++++++++to 0.000610936
Heightened Def Con from 0.000610936 ++++++++++++to 0.000610936
Heightened Def Con from 0.000610936 ++++++++++++to 0.000610936
Heightened Def Con from 0.000610936 +++to 0.000610936
Heightened Def Con from 0.000610936 ++to 0.000610936
Heightened Def Con from 0.000610936 ++++++++++++to 0.000610936
Heightened Def Con from 0.000610936 +++++++++++++to 0.000610936
Heightened Def Con from 0.000610936 +++++++++++++to 0.000610936
Heightened Def Con from 0.000610936 +++++++++++++to 0.000610936
Heightened Def Con from 0.000610936 ++++++++++++++to 0.000610936
Heightened Def Con from 0.000610936 to 0.000610936
Heightened Def Con from 0.000610936 +to 0.000610936
Heightened Def Con from 0.000610936 to 0.000610936
Heightened Def Con from 0.000610936 to 0.000610936
Heightened Def Con from 0.000610936 +++++++++++to 0.000610936
Heightened Def Con from 0.000610936 ++++++to 0.000610936
Heightened Def Con from 0.000610936 ++++++++++++to 0.000610936
Heightened Def Con from 0.000610936 ++++++++++++to 0.000610936
Heightened Def Con from 0.000610936 ++++++++++++to 0.000610936
Heightened Def Con from 0.000610936 ++++++++++++to 0.000610936
Heightened Def Con from 0.000610936 ++++++++++++to 0.000610936
Heightened Def Con from 0.000610936 +++++++++++++to 0.000610936
Heightened Def Con from 0.000610936 +++++++++++++to 0.000610936
Heightened Def Con from 0.000610936 ++++++++++++++to 0.000610936
Heightened Def Con from 0.000610936 +++++++++++to 0.000610936
Heightened Def Con from 0.000610936 ++++++++++++to 0.000610936
Heightened Def Con from 0.000610936 ++++++++++++to 0.000610936
Heightened Def Con from 0.000610936 ++++++++++++to 0.000610936
Heightened Def Con from 0.000610936 +++++++++++++to 0.000610936
Heightened Def Con from 0.000610936 ++++++++++++++to 0.000610936
Heightened Def Con from 0.000610936 +to 0.000610936
Heightened Def Con from 0.000610936 +to 0.000610936
Heightened Def Con from 0.000610936 to 0.000610936
Heightened Def Con from 0.000610936 +to 0.000610936
Heightened Def Con from 0.000610936 ++++++++to 0.000610936
Heightened Def Con from 0.000610936 ++++++++++to 0.000610936
Heightened Def Con from 0.000610936 ++++++++to 0.000610936
Heightened Def Con from 0.000610936 +to 0.000610936
Heightened Def Con from 0.000610936 ++++++to 0.000610936
Heightened Def Con from 0.000610936 +++++++++++to 0.000610936
Heightened Def Con from 0.000610936 ++++++++++++to 0.000610936
Heightened Def Con from 0.000610936 ++++++++++++to 0.000610936
Heightened Def Con from 0.000610936 ++++to 0.000610936
Heightened Def Con from 0.000610936 +++++++++++++to 0.000610936
Heightened Def Con from 0.000610936 ++++++++++++to 0.000610936
Heightened Def Con from 0.000610936 ++to 0.000610936
Heightened Def Con from 0.000610936 +++to 0.000610936
Heightened Def Con from 0.000610936 +++to 0.000610936
Heightened Def Con from 0.000610936 +++++++++++++to 0.000610936
Heightened Def Con from 0.000610936 +++++++++++++to 0.000610936
Heightened Def Con from 0.000610936 +++++++++++++to 0.000610936
Heightened Def Con from 0.000610936 +++++++++++++to 0.000610936
Heightened Def Con from 0.000610936 +++++++++++++to 0.000610936
Heightened Def Con from 0.000610936 ++++++++++++++to 0.000610936
Heightened Def Con from 0.000610936 ++++++++++to 0.000610936
Heightened Def Con from 0.000610936 to 0.000610936
Heightened Def Con from 0.000610936 ++++++++++++to 0.000610936
Heightened Def Con from 0.000610936 ++++++++++++to 0.000610936
Heightened Def Con from 0.000610936 +++++++++++++to 0.000610936
Heightened Def Con from 0.000610936 ++++++++++++to 0.000610936
Heightened Def Con from 0.000610936 +++++++++++++to 0.000610936
Heightened Def Con from 0.000610936 ++++++++++++to 0.000610936
Heightened Def Con from 0.000610936 +++++++++++++to 0.000610936
Heightened Def Con from 0.000610936 +++++++++++++to 0.000610936
Heightened Def Con from 0.000610936 +++++++++++++to 0.000610936
Heightened Def Con from 0.000610936 ++++++++++++++to 0.000610936
Heightened Def Con from 0.000610936 +to 0.000610936
Heightened Def Con from 0.000610936 ++++++++to 0.000610936
Heightened Def Con from 0.000610936 ++++++to 0.000610936
Heightened Def Con from 0.000610936 +++++++++to 0.000610936
Heightened Def Con from 0.000610936 to 0.000610936
Heightened Def Con from 0.000610936 ++++++++to 0.000610936
Heightened Def Con from 0.000610936 ++++++++++++to 0.000610936
Heightened Def Con from 0.000610936 ++++++++++++to 0.000610936
Heightened Def Con from 0.000610936 +++++++++++++to 0.000610936
Heightened Def Con from 0.000610936 +++++++++++++to 0.000610936
Heightened Def Con from 0.000610936 +++++++++++++to 0.000610936
Heightened Def Con from 0.000610936 +++++++++++++to 0.000610936
Heightened Def Con from 0.000610936 +++++++++++++to 0.000610936
Heightened Def Con from 0.000610936 +++++++++++++to 0.000610936
Heightened Def Con from 0.000610936 +++++++++++++to 0.000610936
Heightened Def Con from 0.000610936 ++++++++++++++to 0.000610936
Heightened Def Con from 0.000610936 +++++++++++to 0.000610936
Heightened Def Con from 0.000610936 ++++++++++++to 0.000610936
Heightened Def Con from 0.000610936 +++++to 0.000610936
Heightened Def Con from 0.000610936 +++++++++++++to 0.000610936
Heightened Def Con from 0.000610936 +++++++++++++to 0.000610936
Heightened Def Con from 0.000610936 +++++++++++++to 0.000610936
Heightened Def Con from 0.000610936 +++++++++++++to 0.000610936
Heightened Def Con from 0.000610936 +++++++++++++to 0.000610936
Heightened Def Con from 0.000610936 +++++++++++++to 0.000610936
Heightened Def Con from 0.000610936 ++++++++++++++to 0.000610936
Heightened Def Con from 0.000610936 ++++++++++++++to 0.000610936
Heightened Def Con from 0.000610936 ++++++++++++++to 0.000610936
Heightened Def Con from 0.000610936 ++++++++++++++to 0.000610936
Heightened Def Con from 0.000610936 ++++++++++++++to 0.000610936
Heightened Def Con from 0.000610936 ++++++++++++++to 0.000610936
Heightened Def Con from 0.000610936 +++++++++++++++to 0.000610936
Heightened Def Con from 0.000610936 to 0.000610936
Heightened Def Con from 0.000610936 ++++to 0.000610936
Heightened Def Con from 0.000610936 ++++++++to 0.000610936
Heightened Def Con from 0.000610936 to 0.000610936
Heightened Def Con from 0.000610936 +++to 0.000610936
Heightened Def Con from 0.000610936 +++to 0.000610936
Heightened Def Con from 0.000610936 ++++++++to 0.000610936
Heightened Def Con from 0.000610936 ++++++++to 0.000610936
Heightened Def Con from 0.000610936 +++++to 0.000610936
Heightened Def Con from 0.000610936 ++++++++++++to 0.000610936
Heightened Def Con from 0.000610936 ++to 0.000610936
Heightened Def Con from 0.000610936 to 0.000610936
Heightened Def Con from 0.000610936 to 0.000610936
Heightened Def Con from 0.000610936 to 0.000610936
Heightened Def Con from 0.000610936 ++++++++to 0.000610936
Heightened Def Con from 0.000610936 ++to 0.000610936
Heightened Def Con from 0.000610936 ++++++to 0.000610936
Heightened Def Con from 0.000610936 +++to 0.000610936
Heightened Def Con from 0.000610936 ++++++++++++to 0.000610936
Heightened Def Con from 0.000610936 +++++++to 0.000610936
Heightened Def Con from 0.000610936 ++++++++++++to 0.000610936
Heightened Def Con from 0.000610936 ++++++++++++to 0.000610936
Heightened Def Con from 0.000610936 +++++++++++++to 0.000610936
Heightened Def Con from 0.000610936 +++++++++++++to 0.000610936
Heightened Def Con from 0.000610936 +++++++++++++to 0.000610936
Heightened Def Con from 0.000610936 ++++++++++++++to 0.000610936
Heightened Def Con from 0.000610936 ++++++++++++++to 0.000610936
Heightened Def Con from 0.000610936 ++++++++++++++to 0.000610936
Heightened Def Con from 0.000610936 ++++++++++++++to 0.000610936
Heightened Def Con from 0.000610936 ++++++++++++++to 0.000610936
Heightened Def Con from 0.000610936 ++++++++++++++to 0.000610936
Heightened Def Con from 0.000610936 +++++++++++++++to 0.000610936
Heightened Def Con from 0.000610936 to 0.000610936
Heightened Def Con from 0.000610936 +to 0.000610936
Heightened Def Con from 0.000610936 +++++to 0.000610936
Heightened Def Con from 0.000610936 ++++++++++to 0.000610936
Heightened Def Con from 0.000610936 ++++++++++to 0.000610936
Heightened Def Con from 0.000610936 +++++++++++to 0.000610936
Heightened Def Con from 0.000610936 +++++++++++to 0.000610936
Heightened Def Con from 0.000610936 ++++++to 0.000610936
Heightened Def Con from 0.000610936 ++++++to 0.000610936
Heightened Def Con from 0.000610936 ++++++++++++to 0.000610936
Heightened Def Con from 0.000610936 +to 0.000610936
Heightened Def Con from 0.000610936 ++++++++++++to 0.000610936
Heightened Def Con from 0.000610936 ++++++++++++to 0.000610936
Heightened Def Con from 0.000610936 +++++++++++++to 0.000610936
Heightened Def Con from 0.000610936 +++++++++++++to 0.000610936
Heightened Def Con from 0.000610936 ++++++++++++++to 0.000610936
Heightened Def Con from 0.000610936 ++++++++++++++to 0.000610936
Heightened Def Con from 0.000610936 ++++++++++++++to 0.000610936
Heightened Def Con from 0.000610936 +++++++++++++++to 0.000610936
Heightened Def Con from 0.000610936 ++++to 0.000610936
Heightened Def Con from 0.000610936 to 0.000610936
Heightened Def Con from 0.000610936 +to 0.000610936
Heightened Def Con from 0.000610936 ++++++++++to 0.000610936
Heightened Def Con from 0.000610936 +to 0.000610936
Heightened Def Con from 0.000610936 ++++++++++to 0.000610936
Heightened Def Con from 0.000610936 ++++++++++++to 0.000610936
Heightened Def Con from 0.000610936 +++++++to 0.000610936
Heightened Def Con from 0.000610936 to 0.000610936
Heightened Def Con from 0.000610936 ++++++++++++to 0.000610936
Heightened Def Con from 0.000610936 ++++++++++++to 0.000610936
Heightened Def Con from 0.000610936 +++++++++++++to 0.000610936
Heightened Def Con from 0.000610936 +++++++++++++++to 0.000610936
Heightened Def Con from 0.000610936 to 0.000610936
Heightened Def Con from 0.000610936 to 0.000610936
Heightened Def Con from 0.000610936 to 0.000610936
Heightened Def Con from 0.000610936 to 0.000610936
Heightened Def Con from 0.000610936 to 0.000610936
Heightened Def Con from 0.000610936 to 0.000610936
Heightened Def Con from 0.000610936 ++++++++++to 0.000610936
Heightened Def Con from 0.000610936 +++++++++++to 0.000610936
Heightened Def Con from 0.000610936 +++++++++++to 0.000610936
Heightened Def Con from 0.000610936 ++to 0.000610936
Heightened Def Con from 0.000610936 ++++++++++++to 0.000610936
Heightened Def Con from 0.000610936 +++++++++++++to 0.000610936
Heightened Def Con from 0.000610936 +to 0.000610936
Heightened Def Con from 0.000610936 ++to 0.000610936
Heightened Def Con from 0.000610936 ++to 0.000610936
Heightened Def Con from 0.000610936 ++++to 0.000610936
Heightened Def Con from 0.000610936 ++++++++++++to 0.000610936
Heightened Def Con from 0.000610936 +++++to 0.000610936
Heightened Def Con from 0.000610936 +++++++++++++to 0.000610936
Heightened Def Con from 0.000610936 ++++++++++++++to 0.000610936
Heightened Def Con from 0.000610936 +++++++++++++to 0.000610936
Heightened Def Con from 0.000610936 ++to 0.000610936
Heightened Def Con from 0.000610936 ++++++++++++++to 0.000610936
Heightened Def Con from 0.000610936 ++++++++++++++to 0.000610936
Heightened Def Con from 0.000610936 ++++++++++++++to 0.000610936
Heightened Def Con from 0.000610936 ++++++++++++++to 0.000610936
Heightened Def Con from 0.000610936 ++++++++++++++to 0.000610936
Heightened Def Con from 0.000610936 ++++++++++++++to 0.000610936
Heightened Def Con from 0.000610936 +++++++++++++++to 0.000610936
Heightened Def Con from 0.000610936 ++++++++++++++to 0.000610936
Heightened Def Con from 0.000610936 ++++++++++++++to 0.000610936
Heightened Def Con from 0.000610936 ++++++++++++++to 0.000610936
Heightened Def Con from 0.000610936 ++++++++++++++to 0.000610936
Heightened Def Con from 0.000610936 +++++++++++++++to 0.000610936
Heightened Def Con from 0.000610936 +++++++++++++++to 0.000610936
Heightened Def Con from 0.000610936 +++++++++++++++to 0.000610936
Heightened Def Con from 0.000610936 +++++++++++++++to 0.000610936
Heightened Def Con from 0.000610936 +++++++++++++++to 0.000610936
Heightened Def Con from 0.000610936 +++++++++++++++to 0.000610936
Heightened Def Con from 0.000610936 +++++++++++++++to 0.000610936
Heightened Def Con from 0.000610936 +++++++++++++++to 0.000610936
Heightened Def Con from 0.000610936 +++++++++++++++to 0.000610936
Heightened Def Con from 0.000610936 +++++++++++++++to 0.000610936
Heightened Def Con from 0.000610936 +++++++++++++++to 0.000610936
Heightened Def Con from 0.000610936 +++++++++++++++to 0.000610936
Heightened Def Con from 0.000610936 +++++++++++++++to 0.000610936
Heightened Def Con from 0.000610936 +++++++++++++++to 0.000610936
Heightened Def Con from 0.000610936 ++++++++++++++++to 0.000610936
Heightened Def Con from 0.000610936 +++++++++to 0.000610936
Heightened Def Con from 0.000610936 ++++++to 0.000610936
Heightened Def Con from 0.000610936 +++++to 0.000610936
Heightened Def Con from 0.000610936 ++++++++++++to 0.000610936
Heightened Def Con from 0.000610936 to 0.000610936
Heightened Def Con from 0.000610936 +++++++++to 0.000610936
Heightened Def Con from 0.000610936 +++++++++++to 0.000610936
Heightened Def Con from 0.000610936 +++++++++++++to 0.000610936
Heightened Def Con from 0.000610936 +++++++++++++to 0.000610936
Heightened Def Con from 0.000610936 +++++++++++++to 0.000610936
Heightened Def Con from 0.000610936 +++++++++++to 0.000610936
Heightened Def Con from 0.000610936 +++++++++++++to 0.000610936
Heightened Def Con from 0.000610936 ++++++++++++++to 0.000610936
Heightened Def Con from 0.000610936 +++++++++++++to 0.000610936
Heightened Def Con from 0.000610936 ++++++++++++++to 0.000610936
Heightened Def Con from 0.000610936 ++++++++++++++to 0.000610936
Heightened Def Con from 0.000610936 ++++++++++++++to 0.000610936
Heightened Def Con from 0.000610936 ++++++++++++++to 0.000610936
Heightened Def Con from 0.000610936 ++++++++++++++to 0.000610936
Heightened Def Con from 0.000610936 +++++++++++++++to 0.000610936
Heightened Def Con from 0.000610936 +++++++++++++++to 0.000610936
Heightened Def Con from 0.000610936 +++++++++++++++to 0.000610936
Heightened Def Con from 0.000610936 +++++++++++++++to 0.000610936
Heightened Def Con from 0.000610936 ++++++++++++++++to 0.000610936
Heightened Def Con from 0.000610936 to 0.000610936
Heightened Def Con from 0.000610936 to 0.000610936
Heightened Def Con from 0.000610936 ++++to 0.000610936
Heightened Def Con from 0.000610936 to 0.000610936
Heightened Def Con from 0.000610936 ++to 0.000610936
Heightened Def Con from 0.000610936 ++++++++++++to 0.000610936
Heightened Def Con from 0.000610936 ++++++++++++to 0.000610936
Heightened Def Con from 0.000610936 +++++++++++++to 0.000610936
Heightened Def Con from 0.000610936 ++++++++++++++to 0.000610936
Heightened Def Con from 0.000610936 ++++++++++++++to 0.000610936
Heightened Def Con from 0.000610936 ++++++++++++++to 0.000610936
Heightened Def Con from 0.000610936 ++++++++++++++to 0.000610936
Heightened Def Con from 0.000610936 ++++++++++++++to 0.000610936
Heightened Def Con from 0.000610936 +++++++++++++++to 0.000610936
Heightened Def Con from 0.000610936 +++++++++++++++to 0.000610936
Heightened Def Con from 0.000610936 +++++++++++++++to 0.000610936
Heightened Def Con from 0.000610936 +++++++++++++++to 0.000610936
Heightened Def Con from 0.000610936 +++++++++++++++to 0.000610936
Heightened Def Con from 0.000610936 +++++++++++++++to 0.000610936
Heightened Def Con from 0.000610936 ++++++++++++++++to 0.000610936
Heightened Def Con from 0.000610936 to 0.000610936
Heightened Def Con from 0.000610936 to 0.000610936
Heightened Def Con from 0.000610936 to 0.000610936
Heightened Def Con from 0.000610936 to 0.000610936
Heightened Def Con from 0.000610936 ++to 0.000610936
Heightened Def Con from 0.000610936 +++++++++++to 0.000610936
Heightened Def Con from 0.000610936 +++to 0.000610936
Heightened Def Con from 0.000610936 +++++++++++to 0.000610936
Heightened Def Con from 0.000610936 +to 0.000610936
Heightened Def Con from 0.000610936 +to 0.000610936
Heightened Def Con from 0.000610936 +++++++++++++to 0.000610936
Heightened Def Con from 0.000610936 +++++++++++++to 0.000610936
Heightened Def Con from 0.000610936 +++++++++++++to 0.000610936
Heightened Def Con from 0.000610936 ++++++++++++++to 0.000610936
Heightened Def Con from 0.000610936 ++++++++++++++to 0.000610936
Heightened Def Con from 0.000610936 +++++++++++++++to 0.000610936
Heightened Def Con from 0.000610936 +++++++++++++++to 0.000610936
Heightened Def Con from 0.000610936 ++++++++++++++++to 0.000610937
Heightened Def Con from 0.000610937 to 0.000610937
Heightened Def Con from 0.000610937 to 0.000610937
Heightened Def Con from 0.000610937 ++++++++++to 0.000610937
Heightened Def Con from 0.000610937 +++++++++++to 0.000610937
Heightened Def Con from 0.000610937 +++++++to 0.000610937
Heightened Def Con from 0.000610937 +++++++to 0.000610937
Heightened Def Con from 0.000610937 +++++++++++to 0.000610937
Heightened Def Con from 0.000610937 +++++++++++to 0.000610937
Heightened Def Con from 0.000610937 ++++++++++++to 0.000610937
Heightened Def Con from 0.000610937 +++++++++++++to 0.000610937
Heightened Def Con from 0.000610937 ++++++++++++++to 0.000610937
Heightened Def Con from 0.000610937 ++++++++++++++to 0.000610937
Heightened Def Con from 0.000610937 +++++++++++++++to 0.000610937
Heightened Def Con from 0.000610937 to 0.000610937
Heightened Def Con from 0.000610937 +++++++++++++++to 0.000610937
Heightened Def Con from 0.000610937 +++++++++++++++to 0.000610937
Heightened Def Con from 0.000610937 +++++++++++++++to 0.000610937
Heightened Def Con from 0.000610937 +++++++++++++++to 0.000610937
Heightened Def Con from 0.000610937 +++++++++++++++to 0.000610937
Heightened Def Con from 0.000610937 +++++++++++++++to 0.000610937
Heightened Def Con from 0.000610937 +++++++++++++++to 0.000610937
Heightened Def Con from 0.000610937 ++++++++++++++++to 0.000610937
Heightened Def Con from 0.000610937 to 0.000610937
Heightened Def Con from 0.000610937 +++++++++++to 0.000610937
Heightened Def Con from 0.000610937 ++++++++++to 0.000610937
Heightened Def Con from 0.000610937 ++++to 0.000610937
Heightened Def Con from 0.000610937 +++++++++to 0.000610937
Heightened Def Con from 0.000610937 ++++++++++++to 0.000610937
Heightened Def Con from 0.000610937 ++++++++++++to 0.000610937
Heightened Def Con from 0.000610937 +++++++++to 0.000610937
Heightened Def Con from 0.000610937 ++++to 0.000610937
Heightened Def Con from 0.000610937 +++++++++++to 0.000610937
Heightened Def Con from 0.000610937 ++++++++to 0.000610937
Heightened Def Con from 0.000610937 +++++++++++++to 0.000610937
Heightened Def Con from 0.000610937 ++++++++++++++to 0.000610937
Heightened Def Con from 0.000610937 +++++++++++++++to 0.000610937
Heightened Def Con from 0.000610937 +++++++++++++++to 0.000610937
Heightened Def Con from 0.000610937 +++++++++++++++to 0.000610937
Heightened Def Con from 0.000610937 +++++++++++++++to 0.000610937
Heightened Def Con from 0.000610937 +++++++++++++++to 0.000610937
Heightened Def Con from 0.000610937 +++++++++++++++to 0.000610937
Heightened Def Con from 0.000610937 +++++++++++++++to 0.000610937
Heightened Def Con from 0.000610937 +++++++++++++++to 0.000610937
Heightened Def Con from 0.000610937 +++++++++++++++to 0.000610937
Heightened Def Con from 0.000610937 +++++++++++++++to 0.000610937
Heightened Def Con from 0.000610937 ++++++++++++++++to 0.000610937
Heightened Def Con from 0.000610937 to 0.000610937
Heightened Def Con from 0.000610937 to 0.000610937
Heightened Def Con from 0.000610937 ++++++++to 0.000610937
Heightened Def Con from 0.000610937 to 0.000610937
Heightened Def Con from 0.000610937 to 0.000610937
Heightened Def Con from 0.000610937 to 0.000610937
Heightened Def Con from 0.000610937 +to 0.000610937
Heightened Def Con from 0.000610937 to 0.000610937
Heightened Def Con from 0.000610937 +to 0.000610937
Heightened Def Con from 0.000610937 ++++++++++to 0.000610937
Heightened Def Con from 0.000610937 +++++++++++to 0.000610937
Heightened Def Con from 0.000610937 +++++++++++to 0.000610937
Heightened Def Con from 0.000610937 ++++++++++++to 0.000610937
Heightened Def Con from 0.000610937 ++++++++++++to 0.000610937
Heightened Def Con from 0.000610937 +++++++++++++to 0.000610937
Heightened Def Con from 0.000610937 ++++++++++++to 0.000610937
Heightened Def Con from 0.000610937 to 0.000610937
Heightened Def Con from 0.000610937 ++++++++++++++to 0.000610937
Heightened Def Con from 0.000610937 ++++++++++++++to 0.000610937
Heightened Def Con from 0.000610937 ++++++++++++++to 0.000610937
Heightened Def Con from 0.000610937 ++++++++++++++to 0.000610937
Heightened Def Con from 0.000610937 +++++++++++++++to 0.000610937
Heightened Def Con from 0.000610937 +++++++++++++++to 0.000610937
Heightened Def Con from 0.000610937 +++++++++++++++to 0.000610937
Heightened Def Con from 0.000610937 +++++++++++++++to 0.000610937
Heightened Def Con from 0.000610937 +++++++++++++++to 0.000610937
Heightened Def Con from 0.000610937 +++++++++++++++to 0.000610937
Heightened Def Con from 0.000610937 +++++++++++++++to 0.000610937
Heightened Def Con from 0.000610937 +++++++++++++++to 0.000610937
Heightened Def Con from 0.000610937 +++++++++++++++to 0.000610937
Heightened Def Con from 0.000610937 ++++++++++++++++to 0.000610937
Heightened Def Con from 0.000610937 +++++++++++++++to 0.000610937
Heightened Def Con from 0.000610937 ++++++++++++++++to 0.000610937
Heightened Def Con from 0.000610937 ++++++++++++++++to 0.000610937
Heightened Def Con from 0.000610937 ++++++++++++++++to 0.000610937
Heightened Def Con from 0.000610937 ++++++++++++++++to 0.000610937
Heightened Def Con from 0.000610937 ++++++++++++++++to 0.000610937
Heightened Def Con from 0.000610937 ++++++++++++++++to 0.000610937
Heightened Def Con from 0.000610937 ++++++++++++++++to 0.000610937
Heightened Def Con from 0.000610937 ++++++++++++++++to 0.000610937
Heightened Def Con from 0.000610937 ++++++++++++++++to 0.000610937
Heightened Def Con from 0.000610937 ++++++++++++++++to 0.000610937
Heightened Def Con from 0.000610937 ++++++++++++++++to 0.000610937
Heightened Def Con from 0.000610937 ++++++++++++++++to 0.000610937
Heightened Def Con from 0.000610937 ++++++++++++++++to 0.000610937
Heightened Def Con from 0.000610937 ++++++++++++++++to 0.000610937
Heightened Def Con from 0.000610937 ++++++++++++++++to 0.000610937
Heightened Def Con from 0.000610937 +++++++++++++++++to 0.000610937
Heightened Def Con from 0.000610937 ++++++++++to 0.000610937
Heightened Def Con from 0.000610937 +++++++++++++to 0.000610937
Heightened Def Con from 0.000610937 +++++++++++++to 0.000610937
Heightened Def Con from 0.000610937 +++++++++++++++to 0.000610937
Heightened Def Con from 0.000610937 ++++++++++++++to 0.000610937
Heightened Def Con from 0.000610937 +++++++++++++++to 0.000610937
Heightened Def Con from 0.000610937 +++++++++++++++to 0.000610937
Heightened Def Con from 0.000610937 +++++++++++++++to 0.000610937
Heightened Def Con from 0.000610937 +++++++++++++++to 0.000610937
Heightened Def Con from 0.000610937 +++++++++++++++to 0.000610937
Heightened Def Con from 0.000610937 ++++++++++++++++to 0.000610937
Heightened Def Con from 0.000610937 ++++++++++++++++to 0.000610937
Heightened Def Con from 0.000610937 ++++++++++++++++to 0.000610937
Heightened Def Con from 0.000610937 ++++++++++++++++to 0.000610937
Heightened Def Con from 0.000610937 ++++++++++++++++to 0.000610937
Heightened Def Con from 0.000610937 ++++++++++++++++to 0.000610937
Heightened Def Con from 0.000610937 ++++++++++++++++to 0.000610937
Heightened Def Con from 0.000610937 ++++++++++++++++to 0.000610937
Heightened Def Con from 0.000610937 ++++++++++++++++to 0.000610937
Heightened Def Con from 0.000610937 +++++++++++++++++to 0.000610937
Heightened Def Con from 0.000610937 to 0.000610937
Heightened Def Con from 0.000610937 +++++++++++to 0.000610937
Heightened Def Con from 0.000610937 +++++++++to 0.000610937
Heightened Def Con from 0.000610937 +++++++++++to 0.000610937
Heightened Def Con from 0.000610937 ++++++++++++to 0.000610937
Heightened Def Con from 0.000610937 +++++++++++++to 0.000610937
Heightened Def Con from 0.000610937 +++++++++++to 0.000610937
Heightened Def Con from 0.000610937 +++++++++++++to 0.000610937
Heightened Def Con from 0.000610937 +++++++++++++to 0.000610937
Heightened Def Con from 0.000610937 ++++++++++++++to 0.000610937
Heightened Def Con from 0.000610937 ++++++++++++++to 0.000610937
Heightened Def Con from 0.000610937 +++++++++++++++to 0.000610937
Heightened Def Con from 0.000610937 +++++++++++++++to 0.000610937
Heightened Def Con from 0.000610937 +++++++++++++++to 0.000610937
Heightened Def Con from 0.000610937 +++++++++++++++to 0.000610937
Heightened Def Con from 0.000610937 ++++++++++++++++to 0.000610937
Heightened Def Con from 0.000610937 ++++++++++++++++to 0.000610937
Heightened Def Con from 0.000610937 ++++++++++++++++to 0.000610937
Heightened Def Con from 0.000610937 ++++++++++++++++to 0.000610937
Heightened Def Con from 0.000610937 ++++++++++++++++to 0.000610937
Heightened Def Con from 0.000610937 ++++++++++++++++to 0.000610937
Heightened Def Con from 0.000610937 ++++++++++++++++to 0.000610937
Heightened Def Con from 0.000610937 +++++++++++++++++to 0.000610937
Heightened Def Con from 0.000610937 ++++++++++++++++to 0.000610937
Heightened Def Con from 0.000610937 +++++++++++++++++to 0.000610937
Heightened Def Con from 0.000610937 +++++++++++++++++to 0.000610937
Heightened Def Con from 0.000610937 +++++++++++++++++to 0.000610937
Heightened Def Con from 0.000610937 +++++++++++++++++to 0.000610937
Heightened Def Con from 0.000610937 +++++++++++++++++to 0.000610937
Heightened Def Con from 0.000610937 +++++++++++++++++to 0.000610937
Heightened Def Con from 0.000610937 +++++++++++++++++to 0.000610937
Heightened Def Con from 0.000610937 +++++++++++++++++to 0.000610937
Heightened Def Con from 0.000610937 +++++++++++++++++to 0.000610937
Heightened Def Con from 0.000610937 +++++++++++++++++to 0.000610937
Heightened Def Con from 0.000610937 +++++++++++++++++to 0.000610937
Heightened Def Con from 0.000610937 +++++++++++++++++to 0.000610937
Heightened Def Con from 0.000610937 +++++++++++++++++to 0.000610937
Heightened Def Con from 0.000610937 +++++++++++++++++to 0.000610937
Heightened Def Con from 0.000610937 +++++++++++++++++to 0.000610937
Heightened Def Con from 0.000610937 +++++++++++++++++to 0.000610937
Heightened Def Con from 0.000610937 +++++++++++++++++to 0.000610937
Heightened Def Con from 0.000610937 +++++++++++++++++to 0.000610937
Heightened Def Con from 0.000610937 ++++++++++++++++++to 0.000610937
Heightened Def Con from 0.000610937 to 0.000610937
Heightened Def Con from 0.000610937 +to 0.000610937
Heightened Def Con from 0.000610937 +to 0.000610937
Heightened Def Con from 0.000610937 +++++++to 0.000610937
Heightened Def Con from 0.000610937 +++++++++++to 0.000610937
Heightened Def Con from 0.000610937 +++++++++++to 0.000610937
Heightened Def Con from 0.000610937 +++++++++to 0.000610937
Heightened Def Con from 0.000610937 ++++++++++++to 0.000610937
Heightened Def Con from 0.000610937 ++++++++++++++to 0.000610937
Heightened Def Con from 0.000610937 ++++++++++++++to 0.000610937
Heightened Def Con from 0.000610937 ++++++++++++++to 0.000610937
Heightened Def Con from 0.000610937 ++++++++++++++to 0.000610937
Heightened Def Con from 0.000610937 +++++++++++++++to 0.000610937
Heightened Def Con from 0.000610937 ++++++++++++++++to 0.000610937
Heightened Def Con from 0.000610937 +++++++++++++++++to 0.000610937
Heightened Def Con from 0.000610937 ++++++++++++++++to 0.000610937
Heightened Def Con from 0.000610937 +++++++++++++++++to 0.000610937
Heightened Def Con from 0.000610937 +++++++++++++++++to 0.000610937
Heightened Def Con from 0.000610937 +++++++++++++++++to 0.000610937
Heightened Def Con from 0.000610937 +++++++++++++++++to 0.000610937
Heightened Def Con from 0.000610937 +++++++++++++++++to 0.000610937
Heightened Def Con from 0.000610937 ++++++++++++++++++to 0.000610937
Heightened Def Con from 0.000610937 to 0.000610937
Heightened Def Con from 0.000610937 +++++++++++to 0.000610937
Heightened Def Con from 0.000610937 +++++++++++++to 0.000610937
Heightened Def Con from 0.000610937 ++++++++++++to 0.000610937
Heightened Def Con from 0.000610937 ++++++++++to 0.000610937
Heightened Def Con from 0.000610937 +to 0.000610937
Heightened Def Con from 0.000610937 +to 0.000610937
Heightened Def Con from 0.000610937 ++to 0.000610937
Heightened Def Con from 0.000610937 ++++++++++++++to 0.000610937
Heightened Def Con from 0.000610937 +++++++++++++++to 0.000610937
Heightened Def Con from 0.000610937 +++++++++++++++to 0.000610937
Heightened Def Con from 0.000610937 +++++++++++++++to 0.000610937
Heightened Def Con from 0.000610937 ++++++++++++++++to 0.000610937
Heightened Def Con from 0.000610937 +++++++++++++++++to 0.000610937
Heightened Def Con from 0.000610937 +++++++++++++++++to 0.000610937
Heightened Def Con from 0.000610937 +++++++++++++++++to 0.000610937
Heightened Def Con from 0.000610937 +++++++++++++++++to 0.000610937
Heightened Def Con from 0.000610937 +++++++++++++++++to 0.000610937
Heightened Def Con from 0.000610937 +++++++++++++++++to 0.000610937
Heightened Def Con from 0.000610937 +++++++++++++++++to 0.000610937
Heightened Def Con from 0.000610937 ++++++++++++++++++to 0.000610937
Heightened Def Con from 0.000610937 to 0.000610937
Heightened Def Con from 0.000610937 +to 0.000610937
Heightened Def Con from 0.000610937 to 0.000610937
Heightened Def Con from 0.000610937 +++++++++++to 0.000610937
Heightened Def Con from 0.000610937 ++to 0.000610937
Heightened Def Con from 0.000610937 +++to 0.000610937
Heightened Def Con from 0.000610937 ++++++++++to 0.000610937
Heightened Def Con from 0.000610937 +++++++++++++to 0.000610937
Heightened Def Con from 0.000610937 ++++++++++++++to 0.000610937
Heightened Def Con from 0.000610937 +++++++++++++to 0.000610937
Heightened Def Con from 0.000610937 ++++++++++++++to 0.000610937
Heightened Def Con from 0.000610937 ++++++++++++++to 0.000610937
Heightened Def Con from 0.000610937 ++++++++++++++to 0.000610937
Heightened Def Con from 0.000610937 ++++++++++++++to 0.000610937
Heightened Def Con from 0.000610937 +++++++++++++to 0.000610937
Heightened Def Con from 0.000610937 +++++++++++++++to 0.000610937
Heightened Def Con from 0.000610937 ++++++++++++++++to 0.000610937
Heightened Def Con from 0.000610937 ++++++++++++++++to 0.000610937
Heightened Def Con from 0.000610937 ++++++++++++++++to 0.000610937
Heightened Def Con from 0.000610937 +++++++++++++++++to 0.000610937
Heightened Def Con from 0.000610937 +++++++++++++++++to 0.000610937
Heightened Def Con from 0.000610937 +++++++++++++++++to 0.000610937
Heightened Def Con from 0.000610937 +++++++++++++++++to 0.000610937
Heightened Def Con from 0.000610937 +++++++++++++++++to 0.000610937
Heightened Def Con from 0.000610937 +++++++++++++++++to 0.000610937
Heightened Def Con from 0.000610937 ++++++++++++++++++to 0.000610937
Heightened Def Con from 0.000610937 to 0.000610937
Heightened Def Con from 0.000610937 +++++++++to 0.000610937
Heightened Def Con from 0.000610937 +++++++++to 0.000610937
Heightened Def Con from 0.000610937 +++++++++++to 0.000610937
Heightened Def Con from 0.000610937 ++++++++to 0.000610937
Heightened Def Con from 0.000610937 ++++to 0.000610937
Heightened Def Con from 0.000610937 ++++++++++++to 0.000610937
Heightened Def Con from 0.000610937 +++++++to 0.000610937
Heightened Def Con from 0.000610937 ++++++++++++++to 0.000610937
Heightened Def Con from 0.000610937 +++++++++++++to 0.000610937
Heightened Def Con from 0.000610937 +++++++++++++++to 0.000610937
Heightened Def Con from 0.000610937 +++++++++++++++to 0.000610937
Heightened Def Con from 0.000610937 ++++++++++++++++to 0.000610937
Heightened Def Con from 0.000610937 +++++++++++++++to 0.000610937
Heightened Def Con from 0.000610937 +++++++++++++++to 0.000610937
Heightened Def Con from 0.000610937 ++++++++++++++++to 0.000610937
Heightened Def Con from 0.000610937 ++++++++++++++++to 0.000610937
Heightened Def Con from 0.000610937 ++++++++++++++++to 0.000610937
Heightened Def Con from 0.000610937 +++++++++++++++++to 0.000610937
Heightened Def Con from 0.000610937 +++++++++++++++++to 0.000610937
Heightened Def Con from 0.000610937 +++++++++++++++++to 0.000610937
Heightened Def Con from 0.000610937 ++++++++++++++++++to 0.000610937
Heightened Def Con from 0.000610937 +++++++++++++++to 0.000610937
Heightened Def Con from 0.000610937 +++++++++++++++to 0.000610937
Heightened Def Con from 0.000610937 +++++++++++++++to 0.000610937
Heightened Def Con from 0.000610937 +++++++++++++++to 0.000610937
Heightened Def Con from 0.000610937 ++++++++++++++++to 0.000610937
Heightened Def Con from 0.000610937 ++++++++++++++++to 0.000610937
Heightened Def Con from 0.000610937 +++++++++++++++++to 0.000610937
Heightened Def Con from 0.000610937 +++++++++++++++++to 0.000610937
Heightened Def Con from 0.000610937 +++++++++++++++++to 0.000610937
Heightened Def Con from 0.000610937 +++++++++++++++++to 0.000610937
Heightened Def Con from 0.000610937 +++++++++++++++++to 0.000610937
Heightened Def Con from 0.000610937 +++++++++++++++++to 0.000610937
Heightened Def Con from 0.000610937 ++++++++++++++++++to 0.000610937
Heightened Def Con from 0.000610937 ++++++++++++++++++to 0.000610937
Heightened Def Con from 0.000610937 ++++++++++++++++++to 0.000610937
Heightened Def Con from 0.000610937 ++++++++++++++++++to 0.000610937
Heightened Def Con from 0.000610937 ++++++++++++++++++to 0.000610937
Heightened Def Con from 0.000610937 ++++++++++++++++++to 0.000610937
Heightened Def Con from 0.000610937 ++++++++++++++++++to 0.000610937
Heightened Def Con from 0.000610937 ++++++++++++++++++to 0.000610937
Heightened Def Con from 0.000610937 ++++++++++++++++++to 0.000610937
Heightened Def Con from 0.000610937 ++++++++++++++++++to 0.000610937
Heightened Def Con from 0.000610937 ++++++++++++++++++to 0.000610937
Heightened Def Con from 0.000610937 ++++++++++++++++++to 0.000610937
Heightened Def Con from 0.000610937 ++++++++++++++++++to 0.000610937
Heightened Def Con from 0.000610937 ++++++++++++++++++to 0.000610937
Heightened Def Con from 0.000610937 ++++++++++++++++++to 0.000610937
Heightened Def Con from 0.000610937 ++++++++++++++++++to 0.000610937
Heightened Def Con from 0.000610937 ++++++++++++++++++to 0.000610937
Heightened Def Con from 0.000610937 ++++++++++++++++++to 0.000610937
Heightened Def Con from 0.000610937 ++++++++++++++++++to 0.000610937
Heightened Def Con from 0.000610937 ++++++++++++++++++to 0.000610937
Heightened Def Con from 0.000610937 +++++++++++++++++++to 0.000610937
Heightened Def Con from 0.000610937 to 0.000610937
Heightened Def Con from 0.000610937 to 0.000610937
Heightened Def Con from 0.000610937 to 0.000610937
Heightened Def Con from 0.000610937 to 0.000610937
Heightened Def Con from 0.000610937 +++++++++++++to 0.000610937
Heightened Def Con from 0.000610937 +++++++++++to 0.000610937
Heightened Def Con from 0.000610937 +++to 0.000610937
Heightened Def Con from 0.000610937 ++++++++++++to 0.000610937
Heightened Def Con from 0.000610937 +to 0.000610937
Heightened Def Con from 0.000610937 ++++++++++++to 0.000610937
Heightened Def Con from 0.000610937 ++++++++++++to 0.000610937
Heightened Def Con from 0.000610937 ++to 0.000610937
Heightened Def Con from 0.000610937 to 0.000610937
Heightened Def Con from 0.000610937 ++++++++++to 0.000610937
Heightened Def Con from 0.000610937 +++++++++++++to 0.000610937
Heightened Def Con from 0.000610937 ++++++++++++++to 0.000610937
Heightened Def Con from 0.000610937 ++++++++++++++to 0.000610937
Heightened Def Con from 0.000610937 +++++++++++++++to 0.000610937
Heightened Def Con from 0.000610937 +++++++++++++++to 0.000610937
Heightened Def Con from 0.000610937 +++++++++++++++to 0.000610937
Heightened Def Con from 0.000610937 +++++++++++++++to 0.000610937
Heightened Def Con from 0.000610937 ++++++++++++++++to 0.000610937
Heightened Def Con from 0.000610937 ++++++++++++++++to 0.000610937
Heightened Def Con from 0.000610937 +++++++++++++++++to 0.000610937
Heightened Def Con from 0.000610937 +++++++++++++++++to 0.000610937
Heightened Def Con from 0.000610937 +++++++++++++++++to 0.000610937
Heightened Def Con from 0.000610937 +++++++++++++++++to 0.000610937
Heightened Def Con from 0.000610937 ++++++++++++++++++to 0.000610937
Heightened Def Con from 0.000610937 ++++++++++++++++++to 0.000610937
Heightened Def Con from 0.000610937 ++++++++++++++++++to 0.000610937
Heightened Def Con from 0.000610937 ++++++++++++++++++to 0.000610937
Heightened Def Con from 0.000610937 ++++++++++++++++++to 0.000610937
Heightened Def Con from 0.000610937 ++++++++++++++++++to 0.000610937
Heightened Def Con from 0.000610937 ++++++++++++++++++to 0.000610937
Heightened Def Con from 0.000610937 ++++++++++++++++++to 0.000610937
Heightened Def Con from 0.000610937 +++++++++++++++++++to 0.000610937
Heightened Def Con from 0.000610937 to 0.000610937
Heightened Def Con from 0.000610937 ++++++++++++to 0.000610937
Heightened Def Con from 0.000610937 ++++++++++++++to 0.000610937
Heightened Def Con from 0.000610937 +to 0.000610937
Heightened Def Con from 0.000610937 ++++++++++++++++to 0.000610937
Heightened Def Con from 0.000610937 ++++++++++++++++to 0.000610937
Heightened Def Con from 0.000610937 +++++++++++++++++to 0.000610937
Heightened Def Con from 0.000610937 +++++++++++++++++to 0.000610937
Heightened Def Con from 0.000610937 +++++++++++++++++to 0.000610937
Heightened Def Con from 0.000610937 ++++++++++++++++++to 0.000610937
Heightened Def Con from 0.000610937 ++++++++++++++++++to 0.000610937
Heightened Def Con from 0.000610937 ++++++++++++++++++to 0.000610937
Heightened Def Con from 0.000610937 ++++++++++++++++++to 0.000610937
Heightened Def Con from 0.000610937 ++++++++++++++++++to 0.000610937
Heightened Def Con from 0.000610937 ++++++++++++++++++to 0.000610937
Heightened Def Con from 0.000610937 ++++++++++++++++++to 0.000610937
Heightened Def Con from 0.000610937 ++++++++++++++++++to 0.000610937
Heightened Def Con from 0.000610937 +++++++++++++++++++to 0.000610937
Heightened Def Con from 0.000610937 to 0.000610937
Heightened Def Con from 0.000610937 to 0.000610937
Heightened Def Con from 0.000610937 to 0.000610937
Heightened Def Con from 0.000610937 ++++++++++to 0.000610937
Heightened Def Con from 0.000610937 to 0.000610937
Heightened Def Con from 0.000610937 +++++++++++to 0.000610937
Heightened Def Con from 0.000610937 ++++++++to 0.000610937
Heightened Def Con from 0.000610937 ++++++++++++to 0.000610937
Heightened Def Con from 0.000610937 +++++++++to 0.000610937
Heightened Def Con from 0.000610937 ++++++++++++to 0.000610937
Heightened Def Con from 0.000610937 +++++++++++++to 0.000610937
Heightened Def Con from 0.000610937 ++++++++++++++to 0.000610937
Heightened Def Con from 0.000610937 +++++++++++++++to 0.000610937
Heightened Def Con from 0.000610937 ++++++++++++++to 0.000610937
Heightened Def Con from 0.000610937 +++++++++++++++to 0.000610937
Heightened Def Con from 0.000610937 ++++++++++++++++to 0.000610937
Heightened Def Con from 0.000610937 ++++++++++++++++to 0.000610937
Heightened Def Con from 0.000610937 ++++++++++++++++to 0.000610937
Heightened Def Con from 0.000610937 ++++++++++++++++to 0.000610937
Heightened Def Con from 0.000610937 ++++++++++++++++to 0.000610937
Heightened Def Con from 0.000610937 ++++++++++++++++to 0.000610937
Heightened Def Con from 0.000610937 ++++++++++++++++to 0.000610937
Heightened Def Con from 0.000610937 ++++++++++++++++to 0.000610937
Heightened Def Con from 0.000610937 +++++++++++++++++to 0.000610937
Heightened Def Con from 0.000610937 +++++++++++++++++to 0.000610937
Heightened Def Con from 0.000610937 +++++++++++++++++to 0.000610937
Heightened Def Con from 0.000610937 ++++++++++++++++++to 0.000610937
Heightened Def Con from 0.000610937 +++++++++++++++++to 0.000610937
Heightened Def Con from 0.000610937 +++++++++++++++++to 0.000610937
Heightened Def Con from 0.000610937 +++++++++++++++++to 0.000610937
Heightened Def Con from 0.000610937 +++++++++++++++++to 0.000610937
Heightened Def Con from 0.000610937 +++++++++++++++++to 0.000610937
Heightened Def Con from 0.000610937 ++++++++++++++++++to 0.000610937
Heightened Def Con from 0.000610937 +++++++++++++++++++to 0.000610937
Heightened Def Con from 0.000610937 to 0.000610937
Heightened Def Con from 0.000610937 to 0.000610937
Heightened Def Con from 0.000610937 to 0.000610937
Heightened Def Con from 0.000610937 +to 0.000610937
Heightened Def Con from 0.000610937 ++++++++++++++to 0.000610937
Heightened Def Con from 0.000610937 +++++++++++++to 0.000610937
Heightened Def Con from 0.000610937 +++++++++++++++to 0.000610937
Heightened Def Con from 0.000610937 ++++++++++++++to 0.000610937
Heightened Def Con from 0.000610937 +++++++++++++++to 0.000610937
Heightened Def Con from 0.000610937 ++++++++++++++++to 0.000610937
Heightened Def Con from 0.000610937 +++++++++++++++to 0.000610937
Heightened Def Con from 0.000610937 +++++++++++++++to 0.000610937
Heightened Def Con from 0.000610937 ++++++++++++++++to 0.000610937
Heightened Def Con from 0.000610937 ++++++++++++++++to 0.000610937
Heightened Def Con from 0.000610937 ++++++++++++++++to 0.000610937
Heightened Def Con from 0.000610937 ++++++++++++++++to 0.000610937
Heightened Def Con from 0.000610937 ++++++++++++++++to 0.000610937
Heightened Def Con from 0.000610937 ++++++++++++++++to 0.000610937
Heightened Def Con from 0.000610937 +++++++++++++++++to 0.000610937
Heightened Def Con from 0.000610937 +++++++++++++++++to 0.000610937
Heightened Def Con from 0.000610937 ++++++++++++++++++to 0.000610937
Heightened Def Con from 0.000610937 ++++++++++++++++++to 0.000610937
Heightened Def Con from 0.000610937 ++++++++++++++++++to 0.000610937
Heightened Def Con from 0.000610937 ++++++++++++++++++to 0.000610937
Heightened Def Con from 0.000610937 ++++++++++++++++++to 0.000610937
Heightened Def Con from 0.000610937 +++++++++++++++++++to 0.000610937
Heightened Def Con from 0.000610937 to 0.000610937
Heightened Def Con from 0.000610937 to 0.000610937
Heightened Def Con from 0.000610937 +to 0.000610937
Heightened Def Con from 0.000610937 +++++to 0.000610937
Heightened Def Con from 0.000610937 ++++to 0.000610937
Heightened Def Con from 0.000610937 +to 0.000610937
Heightened Def Con from 0.000610937 +++++++++++++++to 0.000610937
Heightened Def Con from 0.000610937 ++++++++++++++to 0.000610937
Heightened Def Con from 0.000610937 +++++++++++++++to 0.000610937
Heightened Def Con from 0.000610937 +++++++++++++++to 0.000610937
Heightened Def Con from 0.000610937 +++++++++++++++to 0.000610937
Heightened Def Con from 0.000610937 +++++++++++++++to 0.000610937
Heightened Def Con from 0.000610937 +++++++++++++++++to 0.000610937
Heightened Def Con from 0.000610937 +++++++++++++++++to 0.000610937
Heightened Def Con from 0.000610937 +++++++++++++++++to 0.000610937
Heightened Def Con from 0.000610937 +++++++++++++++++to 0.000610937
Heightened Def Con from 0.000610937 ++++++++++++++++++to 0.000610937
Heightened Def Con from 0.000610937 +++++++++++++++++to 0.000610937
Heightened Def Con from 0.000610937 +++++++++++++++++to 0.000610937
Heightened Def Con from 0.000610937 +++++++++++++++++to 0.000610937
Heightened Def Con from 0.000610937 ++++++++++++++++++to 0.000610937
Heightened Def Con from 0.000610937 ++++++++++++++++++to 0.000610937
Heightened Def Con from 0.000610937 ++++++++++++++++++to 0.000610937
Heightened Def Con from 0.000610937 +++++++++++++++++++to 0.000610937
Heightened Def Con from 0.000610937 to 0.000610937
Heightened Def Con from 0.000610937 to 0.000610937
Heightened Def Con from 0.000610937 to 0.000610937
Heightened Def Con from 0.000610937 to 0.000610937
Heightened Def Con from 0.000610937 +to 0.000610937
Heightened Def Con from 0.000610937 +++++++++++++to 0.000610937
Heightened Def Con from 0.000610937 ++++++++++++++++to 0.000610937
Heightened Def Con from 0.000610937 ++++++++++++++++to 0.000610937
Heightened Def Con from 0.000610937 ++++++++++++++++to 0.000610937
Heightened Def Con from 0.000610937 ++++++++++++++++to 0.000610937
Heightened Def Con from 0.000610937 +++++++++++++++++to 0.000610937
Heightened Def Con from 0.000610937 +++++++++++++++++to 0.000610937
Heightened Def Con from 0.000610937 +++++++++++++++++to 0.000610937
Heightened Def Con from 0.000610937 ++++++++++++++++++to 0.000610937
Heightened Def Con from 0.000610937 ++++++++++++++++++to 0.000610937
Heightened Def Con from 0.000610937 ++++++++++++++++++to 0.000610937
Heightened Def Con from 0.000610937 +++++++++++++++++++to 0.000610937
Heightened Def Con from 0.000610937 to 0.000610937
Heightened Def Con from 0.000610937 to 0.000610937
Heightened Def Con from 0.000610937 ++++++++++++++to 0.000610937
Heightened Def Con from 0.000610937 to 0.000610937
Heightened Def Con from 0.000610937 ++++++++++++++to 0.000610937
Heightened Def Con from 0.000610937 ++++++to 0.000610937
Heightened Def Con from 0.000610937 ++++++to 0.000610937
Heightened Def Con from 0.000610937 ++++++++++++++to 0.000610937
Heightened Def Con from 0.000610937 ++++++++++++++to 0.000610937
Heightened Def Con from 0.000610937 +++++++++++++++to 0.000610937
Heightened Def Con from 0.000610937 +++++++++++++++to 0.000610937
Heightened Def Con from 0.000610937 ++++++++++++++++to 0.000610937
Heightened Def Con from 0.000610937 ++++++++++++++++to 0.000610937
Heightened Def Con from 0.000610937 ++++++++++++++++to 0.000610937
Heightened Def Con from 0.000610937 ++++++++++++++++to 0.000610937
Heightened Def Con from 0.000610937 ++++++++++++++++to 0.000610937
Heightened Def Con from 0.000610937 +++++++++++++++++to 0.000610937
Heightened Def Con from 0.000610937 +++++++++++++++++to 0.000610937
Heightened Def Con from 0.000610937 +++++++++++++++++to 0.000610937
Heightened Def Con from 0.000610937 +++++++++++++++++to 0.000610937
Heightened Def Con from 0.000610937 ++++++++++++++++++to 0.000610937
Heightened Def Con from 0.000610937 ++++++++++++++++++to 0.000610937
Heightened Def Con from 0.000610937 ++++++++++++++++++to 0.000610937
Heightened Def Con from 0.000610937 ++++++++++++++++++to 0.000610937
Heightened Def Con from 0.000610937 ++++++++++++++++++to 0.000610937
Heightened Def Con from 0.000610937 ++++++++++++++++++to 0.000610937
Heightened Def Con from 0.000610937 +++++++++++++++++++to 0.000610937
Heightened Def Con from 0.000610937 to 0.000610937
Heightened Def Con from 0.000610937 +++to 0.000610937
Heightened Def Con from 0.000610937 ++++++++++++++to 0.000610937
Heightened Def Con from 0.000610937 ++++++++++++++to 0.000610937
Heightened Def Con from 0.000610937 +++++++++++++++to 0.000610937
Heightened Def Con from 0.000610937 ++++++++++++++++to 0.000610937
Heightened Def Con from 0.000610937 +++++++++++++++to 0.000610937
Heightened Def Con from 0.000610937 +++++++++++++++to 0.000610937
Heightened Def Con from 0.000610937 +++++++++++++++++to 0.000610937
Heightened Def Con from 0.000610937 +++++++++++++++++to 0.000610937
Heightened Def Con from 0.000610937 +++++++++++++++++to 0.000610937
Heightened Def Con from 0.000610937 +++++++++++++++++++to 0.000610937
Heightened Def Con from 0.000610937 +++++++++++++++++to 0.000610937
Heightened Def Con from 0.000610937 ++++++++++++++++++to 0.000610937
Heightened Def Con from 0.000610937 ++++++++++++++++++to 0.000610937
Heightened Def Con from 0.000610937 ++++++++++++++++++to 0.000610937
Heightened Def Con from 0.000610937 ++++++++++++++++++to 0.000610937
Heightened Def Con from 0.000610937 ++++++++++++++++++to 0.000610937
Heightened Def Con from 0.000610937 ++++++++++++++++++to 0.000610937
Heightened Def Con from 0.000610937 ++++++++++++++++++to 0.000610937
Heightened Def Con from 0.000610937 ++++++++++++++++++to 0.000610937
Heightened Def Con from 0.000610937 ++++++++++++++++++to 0.000610937
Heightened Def Con from 0.000610937 +++++++++++++++++++to 0.000610937
Heightened Def Con from 0.000610937 ++++++++++++++++++to 0.000610937
Heightened Def Con from 0.000610937 ++++++++++++++++++to 0.000610937
Heightened Def Con from 0.000610937 ++++++++++++++++++to 0.000610937
Heightened Def Con from 0.000610937 ++++++++++++++++++to 0.000610937
Heightened Def Con from 0.000610937 ++++++++++++++++++to 0.000610937
Heightened Def Con from 0.000610937 ++++++++++++++++++to 0.000610937
Heightened Def Con from 0.000610937 +++++++++++++++++++to 0.000610937
Heightened Def Con from 0.000610937 ++++++++++++++++++to 0.000610937
Heightened Def Con from 0.000610937 +++++++++++++++++++to 0.000610937
Heightened Def Con from 0.000610937 +++++++++++++++++++to 0.000610937
Heightened Def Con from 0.000610937 +++++++++++++++++++to 0.000610937
Heightened Def Con from 0.000610937 +++++++++++++++++++to 0.000610937
Heightened Def Con from 0.000610937 +++++++++++++++++++to 0.000610937
Heightened Def Con from 0.000610937 +++++++++++++++++++to 0.000610937
Heightened Def Con from 0.000610937 +++++++++++++++++++to 0.000610937
Heightened Def Con from 0.000610937 +++++++++++++++++++to 0.000610937
Heightened Def Con from 0.000610937 +++++++++++++++++++to 0.000610937
Heightened Def Con from 0.000610937 +++++++++++++++++++to 0.000610937
Heightened Def Con from 0.000610937 +++++++++++++++++++to 0.000610937
Heightened Def Con from 0.000610937 +++++++++++++++++++to 0.000610937
Heightened Def Con from 0.000610937 +++++++++++++++++++to 0.000610937
Heightened Def Con from 0.000610937 +++++++++++++++++++to 0.000610937
Heightened Def Con from 0.000610937 +++++++++++++++++++to 0.000610937
Heightened Def Con from 0.000610937 +++++++++++++++++++to 0.000610937
Heightened Def Con from 0.000610937 +++++++++++++++++++to 0.000610937
Heightened Def Con from 0.000610937 +++++++++++++++++++to 0.000610937
Heightened Def Con from 0.000610937 ++++++++++++++++++++to 0.000610937
Heightened Def Con from 0.000610937 to 0.000610937
Heightened Def Con from 0.000610937 ++++++++++++to 0.000610937
Heightened Def Con from 0.000610937 ++++++++++++++++to 0.000610937
Heightened Def Con from 0.000610937 ++++++++++++++to 0.000610937
Heightened Def Con from 0.000610937 ++++++++++++++to 0.000610937
Heightened Def Con from 0.000610937 +++++++++++++++to 0.000610937
Heightened Def Con from 0.000610937 ++++++++++++++to 0.000610937
Heightened Def Con from 0.000610937 +++++++++++++++to 0.000610937
Heightened Def Con from 0.000610937 +++++++++++++++++to 0.000610937
Heightened Def Con from 0.000610937 +++++++++++++++++to 0.000610937
Heightened Def Con from 0.000610937 ++++++++++++++++++to 0.000610937
Heightened Def Con from 0.000610937 ++++++++++++++++++to 0.000610937
Heightened Def Con from 0.000610937 ++++++++++++++++++to 0.000610937
Heightened Def Con from 0.000610937 ++++++++++++++++++to 0.000610937
Heightened Def Con from 0.000610937 ++++++++++++++++++to 0.000610937
Heightened Def Con from 0.000610937 ++++++++++++++++++to 0.000610937
Heightened Def Con from 0.000610937 ++++++++++++++++++to 0.000610937
Heightened Def Con from 0.000610937 ++++++++++++++++++to 0.000610937
Heightened Def Con from 0.000610937 ++++++++++++++++++to 0.000610937
Heightened Def Con from 0.000610937 ++++++++++++++++++to 0.000610937
Heightened Def Con from 0.000610937 +++++++++++++++++++to 0.000610937
Heightened Def Con from 0.000610937 +++++++++++++++++++to 0.000610937
Heightened Def Con from 0.000610937 +++++++++++++++++++to 0.000610937
Heightened Def Con from 0.000610937 +++++++++++++++++++to 0.000610937
Heightened Def Con from 0.000610937 +++++++++++++++++++to 0.000610937
Heightened Def Con from 0.000610937 ++++++++++++++++++++to 0.000610938
Heightened Def Con from 0.000610938 ++++to 0.000610938
Heightened Def Con from 0.000610938 to 0.000610938
Heightened Def Con from 0.000610938 to 0.000610938
Heightened Def Con from 0.000610938 ++++++++++to 0.000610938
Heightened Def Con from 0.000610938 to 0.000610938
Heightened Def Con from 0.000610938 to 0.000610938
Heightened Def Con from 0.000610938 ++++++++++++++to 0.000610938
Heightened Def Con from 0.000610938 ++++++++++++++to 0.000610938
Heightened Def Con from 0.000610938 +++++++++++++++++to 0.000610938
Heightened Def Con from 0.000610938 ++++++++++++++++++to 0.000610938
Heightened Def Con from 0.000610938 ++++++++++++++++++to 0.000610938
Heightened Def Con from 0.000610938 +++++++++++++++++++to 0.000610938
Heightened Def Con from 0.000610938 +++++++++++++++++++to 0.000610938
Heightened Def Con from 0.000610938 ++++++++++++++++++++to 0.000610938
Heightened Def Con from 0.000610938 to 0.000610938
Heightened Def Con from 0.000610938 +++++++++++++++to 0.000610938
Heightened Def Con from 0.000610938 ++++++++++++++to 0.000610938
Heightened Def Con from 0.000610938 ++++++++++++++to 0.000610938
Heightened Def Con from 0.000610938 +++++++++++++++to 0.000610938
Heightened Def Con from 0.000610938 ++++++++++++++++to 0.000610938
Heightened Def Con from 0.000610938 +++++++++++++++++to 0.000610938
Heightened Def Con from 0.000610938 +++++++++++++++++to 0.000610938
Heightened Def Con from 0.000610938 +++++++++++++++++to 0.000610938
Heightened Def Con from 0.000610938 +++++++++++++++++to 0.000610938
Heightened Def Con from 0.000610938 ++++++++++++++++++to 0.000610938
Heightened Def Con from 0.000610938 ++++++++++++++++++to 0.000610938
Heightened Def Con from 0.000610938 +++++++++++++++++++to 0.000610938
Heightened Def Con from 0.000610938 +++++++++++++++++++to 0.000610938
Heightened Def Con from 0.000610938 +++++++++++++++++++to 0.000610938
Heightened Def Con from 0.000610938 +++++++++++++++++++to 0.000610938
Heightened Def Con from 0.000610938 +++++++++++++++++++to 0.000610938
Heightened Def Con from 0.000610938 +++++++++++++++++++to 0.000610938
Heightened Def Con from 0.000610938 ++++++++++++++++++++to 0.000610938
Heightened Def Con from 0.000610938 to 0.000610938
Heightened Def Con from 0.000610938 to 0.000610938
Heightened Def Con from 0.000610938 to 0.000610938
Heightened Def Con from 0.000610938 to 0.000610938
Heightened Def Con from 0.000610938 to 0.000610938
Heightened Def Con from 0.000610938 to 0.000610938
Heightened Def Con from 0.000610938 ++++++++++++++to 0.000610938
Heightened Def Con from 0.000610938 +++++++++++++++to 0.000610938
Heightened Def Con from 0.000610938 +++++++++++++++to 0.000610938
Heightened Def Con from 0.000610938 ++++++++++++++to 0.000610938
Heightened Def Con from 0.000610938 ++++++++++++++++to 0.000610938
Heightened Def Con from 0.000610938 +++++++++++++++to 0.000610938
Heightened Def Con from 0.000610938 +++++++++++++++++to 0.000610938
Heightened Def Con from 0.000610938 ++++++++++++++++++to 0.000610938
Heightened Def Con from 0.000610938 ++++++++++++++++++to 0.000610938
Heightened Def Con from 0.000610938 ++++++++++++++++++to 0.000610938
Heightened Def Con from 0.000610938 ++++++++++++++++++to 0.000610938
Heightened Def Con from 0.000610938 +++++++++++++++++++to 0.000610938
Heightened Def Con from 0.000610938 +++++++++++++++++++to 0.000610938
Heightened Def Con from 0.000610938 +++++++++++++++++++to 0.000610938
Heightened Def Con from 0.000610938 +++++++++++++++++++to 0.000610938
Heightened Def Con from 0.000610938 +++++++++++++++++++to 0.000610938
Heightened Def Con from 0.000610938 +++++++++++++++++++to 0.000610938
Heightened Def Con from 0.000610938 +++++++++++++++++++to 0.000610938
Heightened Def Con from 0.000610938 +++++++++++++++++++to 0.000610938
Heightened Def Con from 0.000610938 ++++++++++++++++++++to 0.000610938
Heightened Def Con from 0.000610938 to 0.000610938
Heightened Def Con from 0.000610938 to 0.000610938
Heightened Def Con from 0.000610938 +++++++to 0.000610938
Heightened Def Con from 0.000610938 +++++++++++++++++to 0.000610938
Heightened Def Con from 0.000610938 ++++++++++++++++++to 0.000610938
Heightened Def Con from 0.000610938 ++++++++++++++++++to 0.000610938
Heightened Def Con from 0.000610938 ++++++++++++++++++to 0.000610938
Heightened Def Con from 0.000610938 ++++++++++++++++++to 0.000610938
Heightened Def Con from 0.000610938 +++++++++++++++++++to 0.000610938
Heightened Def Con from 0.000610938 +++++++++++++++++++to 0.000610938
Heightened Def Con from 0.000610938 +++++++++++++++++++to 0.000610938
Heightened Def Con from 0.000610938 +++++++++++++++++++to 0.000610938
Heightened Def Con from 0.000610938 +++++++++++++++++++to 0.000610938
Heightened Def Con from 0.000610938 +++++++++++++++++++to 0.000610938
Heightened Def Con from 0.000610938 ++++++++++++++++++++to 0.000610938
Heightened Def Con from 0.000610938 +++++++++++++++++++to 0.000610938
Heightened Def Con from 0.000610938 +++++++++++++++++++to 0.000610938
Heightened Def Con from 0.000610938 +++++++++++++++++++to 0.000610938
Heightened Def Con from 0.000610938 +++++++++++++++++++to 0.000610938
Heightened Def Con from 0.000610938 +++++++++++++++++++to 0.000610938
Heightened Def Con from 0.000610938 ++++++++++++++++++++to 0.000610938
Heightened Def Con from 0.000610938 +++++++++++++++++++to 0.000610938
Heightened Def Con from 0.000610938 +++++++++++++++++++to 0.000610938
Heightened Def Con from 0.000610938 ++++++++++++++++++++to 0.000610938
Heightened Def Con from 0.000610938 ++++++++++++++++++++to 0.000610938
Heightened Def Con from 0.000610938 ++++++++++++++++++++to 0.000610938
Heightened Def Con from 0.000610938 ++++++++++++++++++++to 0.000610938
Heightened Def Con from 0.000610938 ++++++++++++++++++++to 0.000610938
Heightened Def Con from 0.000610938 ++++++++++++++++++++to 0.000610938
Heightened Def Con from 0.000610938 ++++++++++++++++++++to 0.000610938
Heightened Def Con from 0.000610938 ++++++++++++++++++++to 0.000610938
Heightened Def Con from 0.000610938 ++++++++++++++++++++to 0.000610938
Heightened Def Con from 0.000610938 ++++++++++++++++++++to 0.000610938
Heightened Def Con from 0.000610938 ++++++++++++++++++++to 0.000610938
Heightened Def Con from 0.000610938 ++++++++++++++++++++to 0.000610938
Heightened Def Con from 0.000610938 ++++++++++++++++++++to 0.000610938
Heightened Def Con from 0.000610938 ++++++++++++++++++++to 0.000610938
Heightened Def Con from 0.000610938 ++++++++++++++++++++to 0.000610938
Heightened Def Con from 0.000610938 ++++++++++++++++++++to 0.000610938
Heightened Def Con from 0.000610938 +++++++++++++++++++++to 0.000610939
Heightened Def Con from 0.000610939 ++++++++++++++++++to 0.000610939
Heightened Def Con from 0.000610939 ++++++++++++++++++to 0.000610939
Heightened Def Con from 0.000610939 ++++++++++++++++++to 0.000610939
Heightened Def Con from 0.000610939 ++++++++++++++++++to 0.000610939
Heightened Def Con from 0.000610939 ++++++++++++++++++++to 0.000610939
Heightened Def Con from 0.000610939 +++++++++++++++++++to 0.000610939
Heightened Def Con from 0.000610939 +++++++++++++++++++to 0.000610939
Heightened Def Con from 0.000610939 +++++++++++++++++++to 0.000610939
Heightened Def Con from 0.000610939 ++++++++++++++++++++to 0.000610939
Heightened Def Con from 0.000610939 ++++++++++++++++++++to 0.000610939
Heightened Def Con from 0.000610939 ++++++++++++++++++++to 0.000610939
Heightened Def Con from 0.000610939 ++++++++++++++++++++to 0.000610939
Heightened Def Con from 0.000610939 ++++++++++++++++++++to 0.000610939
Heightened Def Con from 0.000610939 +++++++++++++++++++++to 0.000610939
Heightened Def Con from 0.000610939 +++++++++++++++++++++to 0.000610939
Heightened Def Con from 0.000610939 +++++++++++++++++++++to 0.000610939
Heightened Def Con from 0.000610939 +++++++++++++++++++++to 0.000610939
Heightened Def Con from 0.000610939 +++++++++++++++++++++to 0.000610939
Heightened Def Con from 0.000610939 +++++++++++++++++++++to 0.000610939
Heightened Def Con from 0.000610939 +++++++++++++++++++++to 0.000610939
Heightened Def Con from 0.000610939 ++++++++++++++++++++++to 0.00061094
Heightened Def Con from 0.00061094 to 0.00061094
Heightened Def Con from 0.00061094 +++++++++++to 0.00061094
Heightened Def Con from 0.00061094 +++++++++++++++++to 0.00061094
Heightened Def Con from 0.00061094 +++++++++++++to 0.00061094
Heightened Def Con from 0.00061094 ++++++++++++++to 0.00061094
Heightened Def Con from 0.00061094 ++++++++++++++to 0.00061094
Heightened Def Con from 0.00061094 ++++++++++++++to 0.00061094
Heightened Def Con from 0.00061094 +++++++++++++++++to 0.00061094
Heightened Def Con from 0.00061094 +++++++++++++++++to 0.00061094
[...]
Heightened Def Con from 0.000898964 ++++++++++++++++++++++++++to 0.00089897
Heightened Def Con from 0.00089897 +++++++++++++++to 0.00089897
Heightened Def Con from 0.00089897 to 0.00089897
Heightened Def Con from 0.00089897 ++++++++++++++++++++++++++to 0.000898971
Heightened Def Con from 0.000898971 +++++++++++to 0.000898971
Heightened Def Con from 0.000898971 ++++++++++++++++++++++++++to 0.000898972
Heightened Def Con from 0.000898972 ++++++++++++++++++++++++++to 0.000898973
Heightened Def Con from 0.000898973 ++++++++++++++++++++to 0.000898973
Heightened Def Con from 0.000898973 +++to 0.000898973
Heightened Def Con from 0.000898973 +++++++++++++++++to 0.000898973
Heightened Def Con from 0.000898973 +++++++++++++++++++to 0.000898973
Heightened Def Con from 0.000898973 ++++++++++++++++++++++++++to 0.000898974
Heightened Def Con from 0.000898974 ++++to 0.000898974
Heightened Def Con from 0.000898974 ++++++++to 0.000898974
Heightened Def Con from 0.000898974 +++++++++++++++to 0.000898974
Heightened Def Con from 0.000898974 to 0.000898974
Heightened Def Con from 0.000898974 ++++++++++++++++++++++++++to 0.000898975
Heightened Def Con from 0.000898975 +to 0.000898975
Heightened Def Con from 0.000898975 +++++++++++++to 0.000898975
Heightened Def Con from 0.000898975 +++++++++++++++to 0.000898975
Heightened Def Con from 0.000898975 +++++++++to 0.000898975
Heightened Def Con from 0.000898975 ++++++++++++++++++++++++++to 0.000898976
Heightened Def Con from 0.000898976 ++++++++++++++++++++++to 0.000898976
Heightened Def Con from 0.000898976 ++++++++++++++++++++++++++to 0.000898977
Heightened Def Con from 0.000898977 to 0.000898977
Heightened Def Con from 0.000898977 ++++++++++++++to 0.000898977
Heightened Def Con from 0.000898977 ++++++++++++++++++++++++++to 0.000898978
Heightened Def Con from 0.000898978 ++++++to 0.000898978
Heightened Def Con from 0.000898978 ++++++++++++++++++++++++++to 0.000898979
Heightened Def Con from 0.000898979 +++++++++++++++++++to 0.000898979
Heightened Def Con from 0.000898979 ++++++++++++++++++++to 0.000898979
Heightened Def Con from 0.000898979 +++++++++++++++++++++to 0.000898979
Heightened Def Con from 0.000898979 ++++++++++++++++++++++++++to 0.00089898
Heightened Def Con from 0.00089898 ++++++++++++++to 0.00089898
Heightened Def Con from 0.00089898 ++++++++++++++++++++++++++to 0.000898981
Heightened Def Con from 0.000898981 ++++++++++to 0.000898981
Heightened Def Con from 0.000898981 +to 0.000898981
Heightened Def Con from 0.000898981 +++++++++++++++++++++++to 0.000898981
Heightened Def Con from 0.000898981 ++++++++++++to 0.000898981
Heightened Def Con from 0.000898981 +++++++++++++++++++++++++to 0.000898981
Heightened Def Con from 0.000898981 +++++++++++to 0.000898981
Heightened Def Con from 0.000898981 +++++++++to 0.000898981
Heightened Def Con from 0.000898981 ++++++++++++++++++++++to 0.000898981
Heightened Def Con from 0.000898981 +++++++++++++++to 0.000898981
Heightened Def Con from 0.000898981 ++++++++++++++++++++++++++to 0.000898981
Heightened Def Con from 0.000898981 ++++++++++++++++++++++++++to 0.000898981
Heightened Def Con from 0.000898981 ++++++++++++++++++to 0.000898981
Heightened Def Con from 0.000898981 ++++++++++++to 0.000898981
Heightened Def Con from 0.000898981 ++++++++++++++++++++++++++to 0.000898981
Heightened Def Con from 0.000898981 +++++++++++++++++++++++++to 0.000898981
Heightened Def Con from 0.000898981 ++++++++++++++++++++++++++to 0.000898981
Heightened Def Con from 0.000898981 +++++++++++++++++++to 0.000898981
Heightened Def Con from 0.000898981 to 0.000898981
Heightened Def Con from 0.000898981 ++++++++++++++++++++++to 0.000898981
Heightened Def Con from 0.000898981 +++++++++++++++to 0.000898981
Heightened Def Con from 0.000898981 +++++++++++++++++++++++++to 0.000898981
Heightened Def Con from 0.000898981 +++++++++++++++++++++++++to 0.000898981
Heightened Def Con from 0.000898981 +++++++++++++++++++++++to 0.000898981
Heightened Def Con from 0.000898981 ++++++++++++++++++++++++++to 0.000898981
Heightened Def Con from 0.000898981 +++++++++++++++++++++++++to 0.000898981
Heightened Def Con from 0.000898981 +++++++++++++++++++++++++to 0.000898981
Heightened Def Con from 0.000898981 ++++++++++++++++++++++++++to 0.000898981
Heightened Def Con from 0.000898981 +to 0.000898981
Heightened Def Con from 0.000898981 to 0.000898981
Heightened Def Con from 0.000898981 +++++++++++++++to 0.000898981
Heightened Def Con from 0.000898981 ++++++++++++++++to 0.000898981
Heightened Def Con from 0.000898981 ++++++++to 0.000898981
Heightened Def Con from 0.000898981 ++++++++++++++to 0.000898981
Heightened Def Con from 0.000898981 ++++++++++++++++++++++++++to 0.000898981
Heightened Def Con from 0.000898981 ++++++++++++++++++to 0.000898981
Heightened Def Con from 0.000898981 ++++++++++++++++++++++++++to 0.000898981
Heightened Def Con from 0.000898981 +++++++++++++++++to 0.000898981
Heightened Def Con from 0.000898981 +++++++++++++++++++++++++++to 0.000898987
Heightened Def Con from 0.000898987 +++++to 0.000898987
Heightened Def Con from 0.000898987 to 0.000898987
Heightened Def Con from 0.000898987 +++++++++++++++++++++++++++to 0.000898988
Heightened Def Con from 0.000898988 +++++++to 0.000898988
Heightened Def Con from 0.000898988 +++++++++++++++++++++++++++to 0.000898989
Heightened Def Con from 0.000898989 +++to 0.000898989
Heightened Def Con from 0.000898989 +++++++++++to 0.000898989
Heightened Def Con from 0.000898989 +++++++++to 0.000898989
Heightened Def Con from 0.000898989 +++++++++++to 0.000898989
Heightened Def Con from 0.000898989 +++++++++++++++++++++++++++to 0.00089899
Heightened Def Con from 0.00089899 to 0.00089899
Heightened Def Con from 0.00089899 +++++++++++++++to 0.00089899
Heightened Def Con from 0.00089899 ++++to 0.00089899
Heightened Def Con from 0.00089899 to 0.00089899
Heightened Def Con from 0.00089899 ++to 0.00089899
Heightened Def Con from 0.00089899 +++++++++++++to 0.00089899
Heightened Def Con from 0.00089899 ++++++++++++++++to 0.00089899
Heightened Def Con from 0.00089899 +++++++++++++++++++++++++++to 0.000898991
Heightened Def Con from 0.000898991 to 0.000898991
Heightened Def Con from 0.000898991 +++++++to 0.000898991
Heightened Def Con from 0.000898991 to 0.000898991
Heightened Def Con from 0.000898991 +++++to 0.000898991
Heightened Def Con from 0.000898991 +++++++++++++++++++++++++++to 0.000898992
Heightened Def Con from 0.000898992 +++++++++++++++++++++++++++to 0.000898993
Heightened Def Con from 0.000898993 to 0.000898993
Heightened Def Con from 0.000898993 to 0.000898993
Heightened Def Con from 0.000898993 +++++++++++to 0.000898993
Heightened Def Con from 0.000898993 +++++++++++++++to 0.000898993
Heightened Def Con from 0.000898993 +++++++++++++++++++++++++++to 0.000898994
Heightened Def Con from 0.000898994 to 0.000898994
Heightened Def Con from 0.000898994 +++++++++++to 0.000898994
Heightened Def Con from 0.000898994 to 0.000898994
Heightened Def Con from 0.000898994 ++++++++++++to 0.000898994
Heightened Def Con from 0.000898994 +to 0.000898994
Heightened Def Con from 0.000898994 +++++++++++++++++++++++++++to 0.000898995
Heightened Def Con from 0.000898995 to 0.000898995
Heightened Def Con from 0.000898995 to 0.000898995
Heightened Def Con from 0.000898995 +++++++++++++++++to 0.000898995
Heightened Def Con from 0.000898995 +++++++++++to 0.000898995
Heightened Def Con from 0.000898995 +++++++++++to 0.000898995
Heightened Def Con from 0.000898995 +++++++++++++++++++to 0.000898995
Heightened Def Con from 0.000898995 +++++++++++++++to 0.000898995
Heightened Def Con from 0.000898995 +++++++++++++++++to 0.000898995
Heightened Def Con from 0.000898995 ++++++++++++++++++to 0.000898995
Heightened Def Con from 0.000898995 +++++++++++++++++++++++++++to 0.000898996
Heightened Def Con from 0.000898996 +to 0.000898996
Heightened Def Con from 0.000898996 +++++++++++++++++to 0.000898996
Heightened Def Con from 0.000898996 +++++++++to 0.000898996
Heightened Def Con from 0.000898996 +++++++++++++++++++++++++++to 0.000898997
Heightened Def Con from 0.000898997 to 0.000898997
Heightened Def Con from 0.000898997 to 0.000898997
Heightened Def Con from 0.000898997 +++++++++++to 0.000898997
Heightened Def Con from 0.000898997 +to 0.000898997
Heightened Def Con from 0.000898997 ++++++++++++++++to 0.000898997
Heightened Def Con from 0.000898997 +++++++++++++++++++++++++++to 0.000898998
Heightened Def Con from 0.000898998 +++++++++++++++to 0.000898998
Heightened Def Con from 0.000898998 ++++++++++to 0.000898998
Heightened Def Con from 0.000898998 to 0.000898998
Heightened Def Con from 0.000898998 ++++++++++++++++++++++to 0.000898998
Heightened Def Con from 0.000898998 +++++++++++++++++++++++++++to 0.000898999
Heightened Def Con from 0.000898999 +to 0.000898999
Heightened Def Con from 0.000898999 ++++++++++++++++++to 0.000898999
Heightened Def Con from 0.000898999 +++++++++++++++++++++++++++to 0.000899
Heightened Def Con from 0.000899 +++++++to 0.000899
Heightened Def Con from 0.000899 +++++to 0.000899
Heightened Def Con from 0.000899 ++++++++++++++++++++++to 0.000899
Heightened Def Con from 0.000899 ++++to 0.000899
Heightened Def Con from 0.000899 +++++++++++++++++++++++++++to 0.000899001
Heightened Def Con from 0.000899001 +to 0.000899001
Heightened Def Con from 0.000899001 ++++++++to 0.000899001
Heightened Def Con from 0.000899001 to 0.000899001
Heightened Def Con from 0.000899001 +++++++to 0.000899001
Heightened Def Con from 0.000899001 ++++++++++++to 0.000899001
Heightened Def Con from 0.000899001 ++++++++++++++++++++to 0.000899001
Heightened Def Con from 0.000899001 +++++++++++++++++to 0.000899001
Heightened Def Con from 0.000899001 ++++++to 0.000899001
Heightened Def Con from 0.000899001 +++++++++++++++++++++++++++to 0.000899002
Heightened Def Con from 0.000899002 to 0.000899002
Heightened Def Con from 0.000899002 ++++++++++++++++++++++to 0.000899002
Heightened Def Con from 0.000899002 +++++++++++++++++++++++++++to 0.000899003
Heightened Def Con from 0.000899003 +++to 0.000899003
Heightened Def Con from 0.000899003 ++++++to 0.000899003
Heightened Def Con from 0.000899003 +++++++++++++++++to 0.000899003
Heightened Def Con from 0.000899003 to 0.000899003
Heightened Def Con from 0.000899003 +++++++++++++++++++++++to 0.000899003
Heightened Def Con from 0.000899003 ++++++++to 0.000899003
Heightened Def Con from 0.000899003 +++++++++++++++++++++++++++to 0.000899004
Heightened Def Con from 0.000899004 to 0.000899004
Heightened Def Con from 0.000899004 ++++++++++++++to 0.000899004
Heightened Def Con from 0.000899004 +++++++++++++++++++++++++++to 0.000899005
Heightened Def Con from 0.000899005 ++to 0.000899005
Heightened Def Con from 0.000899005 to 0.000899005
Heightened Def Con from 0.000899005 +++++++++++++++++++++++++++to 0.000899006
Heightened Def Con from 0.000899006 ++++++++++++++++++++++++++to 0.000899006
Heightened Def Con from 0.000899006 +++++++++++++++++++++++++++to 0.000899007
Heightened Def Con from 0.000899007 to 0.000899007
Heightened Def Con from 0.000899007 to 0.000899007
Heightened Def Con from 0.000899007 +++++++++++++++++++++++++++to 0.000899008
Heightened Def Con from 0.000899008 +to 0.000899008
Heightened Def Con from 0.000899008 ++++++++++++++++++to 0.000899008
Heightened Def Con from 0.000899008 +++++++++++++++++++++++++++to 0.000899009
Heightened Def Con from 0.000899009 to 0.000899009
Heightened Def Con from 0.000899009 +++++++++++++++++to 0.000899009
Heightened Def Con from 0.000899009 to 0.000899009
Heightened Def Con from 0.000899009 +++++++++++++++++++++++++++to 0.00089901
Heightened Def Con from 0.00089901 +++++++++++++++++++to 0.00089901
Heightened Def Con from 0.00089901 +++++++++++++++++++++++++++to 0.000899011
Heightened Def Con from 0.000899011 to 0.000899011
Heightened Def Con from 0.000899011 ++++++++++++to 0.000899011
Heightened Def Con from 0.000899011 +++++++++++++++++++++to 0.000899011
Heightened Def Con from 0.000899011 +++++++++++++++++++++++++++to 0.000899012
Heightened Def Con from 0.000899012 +++++++++++++++to 0.000899012
Heightened Def Con from 0.000899012 ++++++++++++++++++++++++++++to 0.000899019
Heightened Def Con from 0.000899019 ++++to 0.000899019
Heightened Def Con from 0.000899019 ++++++++to 0.000899019
Heightened Def Con from 0.000899019 +++++++++++to 0.000899019
Heightened Def Con from 0.000899019 ++++++++++++++++++++++++++++to 0.000899023
Heightened Def Con from 0.000899023 to 0.000899023
Heightened Def Con from 0.000899023 +++++++++++++to 0.000899023
Heightened Def Con from 0.000899023 ++to 0.000899023
Heightened Def Con from 0.000899023 ++++++++++++++to 0.000899023
Heightened Def Con from 0.000899023 +++++++++++++++++++++to 0.000899023
Heightened Def Con from 0.000899023 +to 0.000899023
Heightened Def Con from 0.000899023 +++++++++++++++to 0.000899023
Heightened Def Con from 0.000899023 +++++++++++++++to 0.000899023
Heightened Def Con from 0.000899023 ++++++++++++++++++++++++++++to 0.000899027
Heightened Def Con from 0.000899027 ++to 0.000899027
Heightened Def Con from 0.000899027 +++++++to 0.000899027
Heightened Def Con from 0.000899027 +++++++++++++to 0.000899027
Heightened Def Con from 0.000899027 to 0.000899027
Heightened Def Con from 0.000899027 +to 0.000899027
Heightened Def Con from 0.000899027 ++++++++++to 0.000899027
Heightened Def Con from 0.000899027 to 0.000899027
Heightened Def Con from 0.000899027 +to 0.000899027
Heightened Def Con from 0.000899027 ++++++++++++to 0.000899027
Heightened Def Con from 0.000899027 ++++++++++++++++++++++++++++to 0.000899031
Heightened Def Con from 0.000899031 +++++++++++++++++++to 0.000899031
Heightened Def Con from 0.000899031 ++++++++++++++++++++++++++++to 0.000899035
Heightened Def Con from 0.000899035 ++++++++++++++++++++to 0.000899035
Heightened Def Con from 0.000899035 +++++++to 0.000899035
Heightened Def Con from 0.000899035 +++++++++++to 0.000899035
Heightened Def Con from 0.000899035 ++++++to 0.000899035
Heightened Def Con from 0.000899035 ++++++++++++++++to 0.000899035
Heightened Def Con from 0.000899035 ++++++++++++++++++++++++++++to 0.000899039
Heightened Def Con from 0.000899039 ++++++++++++++++++++to 0.000899039
Heightened Def Con from 0.000899039 ++++to 0.000899039
Heightened Def Con from 0.000899039 +++++++++to 0.000899039
Heightened Def Con from 0.000899039 ++++++++to 0.000899039
Heightened Def Con from 0.000899039 ++++++++++++to 0.000899039
Heightened Def Con from 0.000899039 +++++++to 0.000899039
Heightened Def Con from 0.000899039 +++++++++++++to 0.000899039
Heightened Def Con from 0.000899039 to 0.000899039
Heightened Def Con from 0.000899039 +++++++++++++to 0.000899039
Heightened Def Con from 0.000899039 +++++to 0.000899039
Heightened Def Con from 0.000899039 +++++++++++++++to 0.000899039
Heightened Def Con from 0.000899039 ++++++++++++++++++++++++++++to 0.000899043
Heightened Def Con from 0.000899043 ++++++++++++++++++++to 0.000899043
Heightened Def Con from 0.000899043 ++++++to 0.000899043
Heightened Def Con from 0.000899043 ++++++++++++++++++++++++++++to 0.000899047
Heightened Def Con from 0.000899047 ++++++++++++++++++++++to 0.000899047
Heightened Def Con from 0.000899047 to 0.000899047
Heightened Def Con from 0.000899047 ++++++to 0.000899047
Heightened Def Con from 0.000899047 +++++++++++to 0.000899047
Heightened Def Con from 0.000899047 ++++++++++++++++++++++++++++to 0.000899051
Heightened Def Con from 0.000899051 ++++++++++++++++++++++to 0.000899051
Heightened Def Con from 0.000899051 to 0.000899051
Heightened Def Con from 0.000899051 +++++++++++++++to 0.000899051
Heightened Def Con from 0.000899051 to 0.000899051
Heightened Def Con from 0.000899051 ++to 0.000899051
Heightened Def Con from 0.000899051 ++++++++++++++++++++++++++++to 0.000899055
Heightened Def Con from 0.000899055 ++++++++++++++++++++++to 0.000899055
Heightened Def Con from 0.000899055 to 0.000899055
Heightened Def Con from 0.000899055 ++++++to 0.000899055
Heightened Def Con from 0.000899055 to 0.000899055
Heightened Def Con from 0.000899055 ++++++++++++++++++++++++++++to 0.000899059
Heightened Def Con from 0.000899059 ++++++++++++++++++++++to 0.000899059
Heightened Def Con from 0.000899059 +to 0.000899059
Heightened Def Con from 0.000899059 to 0.000899059
Heightened Def Con from 0.000899059 to 0.000899059
Heightened Def Con from 0.000899059 ++++++++++to 0.000899059
Heightened Def Con from 0.000899059 +++++++++++++++++++++++++++to 0.000899059
Heightened Def Con from 0.000899059 ++++++++++++++++++++++++++++to 0.000899063
Heightened Def Con from 0.000899063 ++++++++++++++++++++++to 0.000899063
Heightened Def Con from 0.000899063 +++to 0.000899063
Heightened Def Con from 0.000899063 ++++++++++++++++++++++++++++to 0.000899067
Heightened Def Con from 0.000899067 +++++++++++++++++++++++to 0.000899067
Heightened Def Con from 0.000899067 to 0.000899067
Heightened Def Con from 0.000899067 to 0.000899067
Heightened Def Con from 0.000899067 to 0.000899067
Heightened Def Con from 0.000899067 ++++++++++++++to 0.000899067
Heightened Def Con from 0.000899067 ++++++++++++++++to 0.000899067
Heightened Def Con from 0.000899067 ++++++++++++++++++++++++++++to 0.000899071
Heightened Def Con from 0.000899071 +++++++++++++++++++++++to 0.000899071
Heightened Def Con from 0.000899071 to 0.000899071
Heightened Def Con from 0.000899071 to 0.000899071
Heightened Def Con from 0.000899071 +++to 0.000899071
Heightened Def Con from 0.000899071 +++++to 0.000899071
Heightened Def Con from 0.000899071 to 0.000899071
Heightened Def Con from 0.000899071 to 0.000899071
Heightened Def Con from 0.000899071 +++++++++++++to 0.000899071
Heightened Def Con from 0.000899071 ++++++++++++++++++++++++++++to 0.000899076
Heightened Def Con from 0.000899076 ++++++++++++++++++++++++to 0.000899076
Heightened Def Con from 0.000899076 to 0.000899076
Heightened Def Con from 0.000899076 ++++++++++++++++++++++++++++to 0.00089908
Heightened Def Con from 0.00089908 ++++++++++++++++++++++++to 0.00089908
Heightened Def Con from 0.00089908 to 0.00089908
Heightened Def Con from 0.00089908 +++++++to 0.00089908
Heightened Def Con from 0.00089908 ++++to 0.00089908
Heightened Def Con from 0.00089908 ++++++to 0.00089908
Heightened Def Con from 0.00089908 ++++++++++++++++++++++++++++to 0.000899084
Heightened Def Con from 0.000899084 +++++++++++++++++++++++++to 0.000899084
Heightened Def Con from 0.000899084 ++++++++to 0.000899084
Heightened Def Con from 0.000899084 ++++++to 0.000899084
Heightened Def Con from 0.000899084 +++++++++++++++++++++++++to 0.000899084
Heightened Def Con from 0.000899084 ++++++++++++++++++++++++++++to 0.000899085
Heightened Def Con from 0.000899085 +++++++++++++++++++++++++to 0.000899085
Heightened Def Con from 0.000899085 ++++++++++++++to 0.000899085
Heightened Def Con from 0.000899085 +++++++++++++++to 0.000899085
Heightened Def Con from 0.000899085 to 0.000899085
Heightened Def Con from 0.000899085 +++++++++++++++++++++++++++++to 0.000899091
Heightened Def Con from 0.000899091 ++++++++++++++++++++++++to 0.000899091
Heightened Def Con from 0.000899091 to 0.000899091
Heightened Def Con from 0.000899114 to 0.000899118
Heightened Def Con from 0.000899126 to 0.000899133
Heightened Def Con from 0.000913104 to 0.000913109
Heightened Def Con from 0.000924242 to 0.000924245
Heightened Def Con from 0.000935209 to 0.000935214
Heightened Def Con from 0.000935224 to 0.000935228
Heightened Def Con from 0.00095731 to 0.000957315
Heightened Def Con from 0.000957317 to 0.000957321
Heightened Def Con from 0.000979412 to 0.000979415
Heightened Def Con from 0.00729482 to 0.00729482

Date: Thu Oct 23 21:43:40 2025
Total elapsed time: 428.014 seconds.

tnom = 27
temp = 27
method = trap
totiter = 43104985
traniter = 43103087
tranpoints = 4146519
accept = 586457
rejected = 3904470
matrix size = 175
fillins = 177
solver = Normal
Thread vector: 17.5/6.3[7] 2.0/3.4[1] 4.3/2.7[6] 0.4/1.8[1]  2592/500
Matrix Compiler1: 22.84 KB object code size  2.8/1.3/[1.2]
Matrix Compiler2: 17.52 KB object code size  1.1/1.1/[0.8]

