Circuit: * E:\Elektronika\diff_probe\DS100M08KV2\simulacije\charge_pump\complete.asc

WARNING: Less than two connections to node LOSSES.  This node is used by B3.
WARNING: Less than two connections to node EFFICIENCY.  This node is used by B4.
WARNING: Less than two connections to node U7:U1:UA:TEST.  This node is used by E:U7:U1:UA:TEST.
WARNING: Less than two connections to node U7:U1:UA:VTH_DIFF.  This node is used by E:U7:U1:UA:VTHDIFF.
WARNING: Less than two connections to node U7:U1:UB:TEST.  This node is used by E:U7:U1:UB:TEST.
WARNING: Less than two connections to node U7:U1:UB:VTH_DIFF.  This node is used by E:U7:U1:UB:VTHDIFF.
Instance "m:u8:2": Length shorter than recommended for a level 3 MOSFET.
Instance "m:m2:2": Length shorter than recommended for a level 3 MOSFET.
Instance "m:u6:2": Length shorter than recommended for a level 3 MOSFET.
Instance "m:u5:2": Length shorter than recommended for a level 3 MOSFET.
Direct Newton iteration failed to find .op point.  (Use ".option noopiter" to skip.)
Starting Gmin stepping
Gmin = 10
Gmin = 1.07374
vernier = 0.5
vernier = 0.25
vernier = 0.125
vernier = 0.0625
Gmin = 0.995033
vernier = 0.0833333
Gmin = 0.826371
vernier = 0.111111
vernier = 0.148148
Gmin = 0.606181
vernier = 0.197531
vernier = 0.263374
Gmin = 0.371556
vernier = 0.351165
Gmin = 0.173771
vernier = 0.46822
vernier = 0.624294
Gmin = 0.0500711
vernier = 0.832392
vernier = 1
Gmin = 0.00771229
Gmin = 0.000828101
vernier = 0.5
vernier = 0.25
vernier = 0.125
vernier = 0.0625
vernier = 0.03125
Gmin = 0.00100376
vernier = 0.015625
vernier = 0.0078125
vernier = 0.00390625
vernier = 0.00195313
Gmin = 0.00100082
vernier = 0.000976563
vernier = 0.000488281
Gmin = 0
Gmin stepping succeeded in finding the operating point.

Heightened Def Con from 0.000582011 to 0.000582017
Heightened Def Con from 0.000593118 to 0.000593118
Heightened Def Con from 0.000593118 +to 0.000593118
Heightened Def Con from 0.000593118 ++++++to 0.000593118
Heightened Def Con from 0.000593118 ++++++to 0.000593118
Heightened Def Con from 0.000593118 to 0.000593118
Heightened Def Con from 0.000593118 ++++to 0.000593118
Heightened Def Con from 0.000593118 to 0.000593118
Heightened Def Con from 0.000593118 ++++++++to 0.000593118
Heightened Def Con from 0.000593118 +++++++to 0.000593118
Heightened Def Con from 0.000593118 ++to 0.000593118
Heightened Def Con from 0.000593118 ++++++++to 0.000593118
Heightened Def Con from 0.000593118 +to 0.000593118
Heightened Def Con from 0.000593118 ++++++++to 0.000593118
Heightened Def Con from 0.000593118 +++++++++to 0.000593118
Heightened Def Con from 0.000593118 +++++++++to 0.000593118
Heightened Def Con from 0.000593118 ++++++++++to 0.000593118
Heightened Def Con from 0.000593118 ++++++++++to 0.000593118
Heightened Def Con from 0.000593118 ++++++++++to 0.000593118
Heightened Def Con from 0.000593118 ++to 0.000593118
Heightened Def Con from 0.000593118 ++++++++++to 0.000593118
Heightened Def Con from 0.000593118 ++++++++++to 0.000593118
Heightened Def Con from 0.000593118 ++++++++to 0.000593118
Heightened Def Con from 0.000593118 to 0.000593118
Heightened Def Con from 0.000593118 ++to 0.000593118
Heightened Def Con from 0.000593118 ++++++++++to 0.000593118
Heightened Def Con from 0.000593118 +++++++++++to 0.000593118
Heightened Def Con from 0.000593118 ++++++to 0.000593118
Heightened Def Con from 0.000593118 ++++++to 0.000593118
Heightened Def Con from 0.000593118 ++++++++to 0.000593118
Heightened Def Con from 0.000593118 +++++++to 0.000593118
Heightened Def Con from 0.000593118 +++++++++to 0.000593118
Heightened Def Con from 0.000593118 +++++to 0.000593118
Heightened Def Con from 0.000593118 +++to 0.000593118
Heightened Def Con from 0.000593118 ++++++to 0.000593118
Heightened Def Con from 0.000593118 +++++++++to 0.000593118
Heightened Def Con from 0.000593118 +++++to 0.000593118
Heightened Def Con from 0.000593118 ++++++++++to 0.000593118
Heightened Def Con from 0.000593118 +++++++++to 0.000593118
Heightened Def Con from 0.000593118 ++++++++++to 0.000593118
Heightened Def Con from 0.000593118 ++++++++++to 0.000593118
Heightened Def Con from 0.000593118 +++++++++++to 0.000593118
Heightened Def Con from 0.000593118 to 0.000593118
Heightened Def Con from 0.000593118 +to 0.000593118
Heightened Def Con from 0.000593118 to 0.000593118
Heightened Def Con from 0.000593118 ++++++to 0.000593118
Heightened Def Con from 0.000593118 +++to 0.000593118
Heightened Def Con from 0.000593118 to 0.000593118
Heightened Def Con from 0.000593118 ++++++to 0.000593118
Heightened Def Con from 0.000593118 to 0.000593118
Heightened Def Con from 0.000593118 to 0.000593118
Heightened Def Con from 0.000593118 +to 0.000593118
Heightened Def Con from 0.000593118 +++to 0.000593118
Heightened Def Con from 0.000593118 to 0.000593118
Heightened Def Con from 0.000593118 to 0.000593118
Heightened Def Con from 0.000593118 +++to 0.000593118
Heightened Def Con from 0.000593118 to 0.000593118
Heightened Def Con from 0.000593118 +++++to 0.000593118
Heightened Def Con from 0.000593118 +++++++++to 0.000593118
Heightened Def Con from 0.000593118 +++++++++to 0.000593118
Heightened Def Con from 0.000593118 ++++++++++to 0.000593118
Heightened Def Con from 0.000593118 ++++++++++to 0.000593118
Heightened Def Con from 0.000593118 ++++++++++to 0.000593118
Heightened Def Con from 0.000593118 ++++++++++to 0.000593118
Heightened Def Con from 0.000593118 +++++++++++to 0.000593118
Heightened Def Con from 0.000593118 +to 0.000593118
Heightened Def Con from 0.000593118 ++++++++to 0.000593118
Heightened Def Con from 0.000593118 to 0.000593118
Heightened Def Con from 0.000593118 to 0.000593118
Heightened Def Con from 0.000593118 to 0.000593118
Heightened Def Con from 0.000593118 to 0.000593118
Heightened Def Con from 0.000593118 ++++++++++to 0.000593118
Heightened Def Con from 0.000593118 +++++++++++to 0.000593118
Heightened Def Con from 0.000593118 ++++to 0.000593118
Heightened Def Con from 0.000593118 ++to 0.000593118
Heightened Def Con from 0.000593118 ++++++++++to 0.000593118
Heightened Def Con from 0.000593118 +++++++++to 0.000593118
Heightened Def Con from 0.000593118 ++++to 0.000593118
Heightened Def Con from 0.000593118 ++++++++++to 0.000593118
Heightened Def Con from 0.000593118 ++++++++++to 0.000593118
Heightened Def Con from 0.000593118 to 0.000593118
Heightened Def Con from 0.000593118 ++++++++++to 0.000593118
Heightened Def Con from 0.000593118 +++to 0.000593118
Heightened Def Con from 0.000593118 ++++++++++to 0.000593118
Heightened Def Con from 0.000593118 +++to 0.000593118
Heightened Def Con from 0.000593118 +to 0.000593118
Heightened Def Con from 0.000593118 ++++++++++to 0.000593118
Heightened Def Con from 0.000593118 ++++++++++to 0.000593118
Heightened Def Con from 0.000593118 ++++++++++to 0.000593118
Heightened Def Con from 0.000593118 ++++++++++to 0.000593118
Heightened Def Con from 0.000593118 ++++to 0.000593118
Heightened Def Con from 0.000593118 ++++++++++to 0.000593118
Heightened Def Con from 0.000593118 +++++++++++to 0.000593118
Heightened Def Con from 0.000593118 ++++++++++to 0.000593118
Heightened Def Con from 0.000593118 ++++++++++to 0.000593118
Heightened Def Con from 0.000593118 +++++++to 0.000593118
Heightened Def Con from 0.000593118 ++++++++++to 0.000593118
Heightened Def Con from 0.000593118 ++++++++to 0.000593118
Heightened Def Con from 0.000593118 ++++++++++to 0.000593118
Heightened Def Con from 0.000593118 ++++++++++to 0.000593118
Heightened Def Con from 0.000593118 ++++++++to 0.000593118
Heightened Def Con from 0.000593118 ++++++++++to 0.000593118
Heightened Def Con from 0.000593118 +++++++++++to 0.000593118
Heightened Def Con from 0.000593118 ++++++++++to 0.000593118
Heightened Def Con from 0.000593118 +++++++++++to 0.000593118
Heightened Def Con from 0.000593118 +++++++++++to 0.000593118
Heightened Def Con from 0.000593118 +++to 0.000593118
Heightened Def Con from 0.000593118 +++to 0.000593118
Heightened Def Con from 0.000593118 +++++++++++to 0.000593118
Heightened Def Con from 0.000593118 +++++++++++to 0.000593118
Heightened Def Con from 0.000593118 ++++++++++to 0.000593118
Heightened Def Con from 0.000593118 +++++++++++to 0.000593118
Heightened Def Con from 0.000593118 +++++++++++to 0.000593118
Heightened Def Con from 0.000593118 +++++++++++to 0.000593118
Heightened Def Con from 0.000593118 +++++++++++to 0.000593118
Heightened Def Con from 0.000593118 +++++++++++to 0.000593118
Heightened Def Con from 0.000593118 ++++++++++to 0.000593118
Heightened Def Con from 0.000593118 +++++++++++to 0.000593118
Heightened Def Con from 0.000593118 ++++++++++++to 0.000593118
Heightened Def Con from 0.000593118 +++++++to 0.000593118
Heightened Def Con from 0.000593118 +++++++++to 0.000593118
Heightened Def Con from 0.000593118 ++to 0.000593118
Heightened Def Con from 0.000593118 +++to 0.000593118
Heightened Def Con from 0.000593118 +++++++++to 0.000593118
Heightened Def Con from 0.000593118 +++++++++++to 0.000593118
Heightened Def Con from 0.000593118 +++++to 0.000593118
Heightened Def Con from 0.000593118 +++++++to 0.000593118
Heightened Def Con from 0.000593118 ++++++++++to 0.000593118
Heightened Def Con from 0.000593118 +++++++++++to 0.000593118
Heightened Def Con from 0.000593118 +++++++++++to 0.000593118
Heightened Def Con from 0.000593118 ++++++++++++to 0.000593118
Heightened Def Con from 0.000593118 ++++++to 0.000593118
Heightened Def Con from 0.000593118 ++++to 0.000593118
Heightened Def Con from 0.000593118 +++++to 0.000593118
Heightened Def Con from 0.000593118 ++++++to 0.000593118
Heightened Def Con from 0.000593118 +++++++++to 0.000593118
Heightened Def Con from 0.000593118 ++++++++to 0.000593118
Heightened Def Con from 0.000593118 ++++++++to 0.000593118
Heightened Def Con from 0.000593118 ++++++++++to 0.000593118
Heightened Def Con from 0.000593118 ++++++++++to 0.000593118
Heightened Def Con from 0.000593118 ++++++++++to 0.000593118
Heightened Def Con from 0.000593118 +++++++++++to 0.000593118
Heightened Def Con from 0.000593118 +to 0.000593118
Heightened Def Con from 0.000593118 +++++++++++to 0.000593118
Heightened Def Con from 0.000593118 to 0.000593118
Heightened Def Con from 0.000593118 +++++to 0.000593118
Heightened Def Con from 0.000593118 +++++++++++to 0.000593118
Heightened Def Con from 0.000593118 +++++++++++to 0.000593118
Heightened Def Con from 0.000593118 +++++++++++to 0.000593118
Heightened Def Con from 0.000593118 +++++++++++to 0.000593118
Heightened Def Con from 0.000593118 +++++++++++to 0.000593118
Heightened Def Con from 0.000593118 ++++++++++++to 0.000593118
Heightened Def Con from 0.000593118 to 0.000593118
Heightened Def Con from 0.000593118 ++++++++to 0.000593118
Heightened Def Con from 0.000593118 to 0.000593118
Heightened Def Con from 0.000593118 to 0.000593118
Heightened Def Con from 0.000593118 ++++++++to 0.000593118
Heightened Def Con from 0.000593118 ++++++++++to 0.000593118
Heightened Def Con from 0.000593118 ++++++++++to 0.000593118
Heightened Def Con from 0.000593118 ++++++++++to 0.000593118
Heightened Def Con from 0.000593118 ++to 0.000593118
Heightened Def Con from 0.000593118 +++++++++++to 0.000593118
Heightened Def Con from 0.000593118 +++++++++++to 0.000593118
Heightened Def Con from 0.000593118 ++++++++++++to 0.000593118
Heightened Def Con from 0.000593118 ++++to 0.000593118
Heightened Def Con from 0.000593118 to 0.000593118
Heightened Def Con from 0.000593118 ++to 0.000593118
Heightened Def Con from 0.000593118 +++to 0.000593118
Heightened Def Con from 0.000593118 +++++++++to 0.000593118
Heightened Def Con from 0.000593118 ++++++++++to 0.000593118
Heightened Def Con from 0.000593118 +++++++++++to 0.000593118
Heightened Def Con from 0.000593118 ++++++++++++to 0.000593118
Heightened Def Con from 0.000593118 to 0.000593118
Heightened Def Con from 0.000593118 ++to 0.000593118
Heightened Def Con from 0.000593118 to 0.000593118
Heightened Def Con from 0.000593118 +++++++++to 0.000593118
Heightened Def Con from 0.000593118 +++++++++to 0.000593118
Heightened Def Con from 0.000593118 +++++++++to 0.000593118
Heightened Def Con from 0.000593118 ++++++++++to 0.000593118
Heightened Def Con from 0.000593118 ++++++++++to 0.000593118
Heightened Def Con from 0.000593118 ++++++++++to 0.000593118
Heightened Def Con from 0.000593118 to 0.000593118
Heightened Def Con from 0.000593118 +++++++++++to 0.000593118
Heightened Def Con from 0.000593118 +++++++++++to 0.000593118
Heightened Def Con from 0.000593118 ++++++++to 0.000593118
Heightened Def Con from 0.000593118 +++++++++++to 0.000593118
Heightened Def Con from 0.000593118 ++++++++++to 0.000593118
Heightened Def Con from 0.000593118 ++++++++++++to 0.000593118
Heightened Def Con from 0.000593118 ++++++++++to 0.000593118
Heightened Def Con from 0.000593118 ++++++to 0.000593118
Heightened Def Con from 0.000593118 +++++++++to 0.000593118
Heightened Def Con from 0.000593118 +++++++++++to 0.000593118
Heightened Def Con from 0.000593118 +++++++++++to 0.000593118
Heightened Def Con from 0.000593118 +++++++++++to 0.000593118
Heightened Def Con from 0.000593118 ++++++++++++to 0.000593118
Heightened Def Con from 0.000593118 ++++++++++to 0.000593118
Heightened Def Con from 0.000593118 +++to 0.000593118
Heightened Def Con from 0.000593118 ++to 0.000593118
Heightened Def Con from 0.000593118 +++++++++++to 0.000593118
Heightened Def Con from 0.000593118 +++to 0.000593118
Heightened Def Con from 0.000593118 +++++++++++to 0.000593118
Heightened Def Con from 0.000593118 +++++++++++to 0.000593118
Heightened Def Con from 0.000593118 +++++++++++to 0.000593118
Heightened Def Con from 0.000593118 +++++++++++to 0.000593118
Heightened Def Con from 0.000593118 ++++++++++++to 0.000593118
Heightened Def Con from 0.000593118 +++to 0.000593118
Heightened Def Con from 0.000593118 +++++++++++to 0.000593118
Heightened Def Con from 0.000593118 +++++++++++to 0.000593118
Heightened Def Con from 0.000593118 ++++to 0.000593118
Heightened Def Con from 0.000593118 +++++++++++to 0.000593118
Heightened Def Con from 0.000593118 ++++++++++++to 0.000593118
Heightened Def Con from 0.000593118 ++++++to 0.000593118
Heightened Def Con from 0.000593118 ++++++++++to 0.000593118
Heightened Def Con from 0.000593118 ++++++++++to 0.000593118
Heightened Def Con from 0.000593118 +++++++++++to 0.000593118
Heightened Def Con from 0.000593118 ++++++++++++to 0.000593118
Heightened Def Con from 0.000593118 +++++++++to 0.000593118
Heightened Def Con from 0.000593118 ++++++++++++to 0.000593118
Heightened Def Con from 0.000593118 ++++++++++++to 0.000593118
Heightened Def Con from 0.000593118 ++++++++++++to 0.000593118
Heightened Def Con from 0.000593118 ++++++++++++to 0.000593118
Heightened Def Con from 0.000593118 ++++++++++++to 0.000593118
Heightened Def Con from 0.000593118 ++++++++++++to 0.000593118
Heightened Def Con from 0.000593118 ++++++++++++to 0.000593118
Heightened Def Con from 0.000593118 ++++++++++++to 0.000593118
Heightened Def Con from 0.000593118 ++++++++++++to 0.000593118
Heightened Def Con from 0.000593118 +++++++++++++to 0.000593118
Heightened Def Con from 0.000593118 to 0.000593118
Heightened Def Con from 0.000593118 +++++++to 0.000593118
Heightened Def Con from 0.000593118 +++++++++to 0.000593118
Heightened Def Con from 0.000593118 ++++++++++to 0.000593118
Heightened Def Con from 0.000593118 +++++++++++to 0.000593118
Heightened Def Con from 0.000593118 +++++++++++to 0.000593118
Heightened Def Con from 0.000593118 ++++++++++++to 0.000593118
Heightened Def Con from 0.000593118 ++++++++++++to 0.000593118
Heightened Def Con from 0.000593118 ++++++++++++to 0.000593118
Heightened Def Con from 0.000593118 ++++++++++++to 0.000593118
Heightened Def Con from 0.000593118 ++++++++++++to 0.000593118
Heightened Def Con from 0.000593118 +++++++++++++to 0.000593118
Heightened Def Con from 0.000593118 to 0.000593118
Heightened Def Con from 0.000593118 +to 0.000593118
Heightened Def Con from 0.000593118 ++++++++++to 0.000593118
Heightened Def Con from 0.000593118 ++++to 0.000593118
Heightened Def Con from 0.000593118 ++to 0.000593118
Heightened Def Con from 0.000593118 ++++++++++to 0.000593118
Heightened Def Con from 0.000593118 +to 0.000593118
Heightened Def Con from 0.000593118 +++++++++++to 0.000593118
Heightened Def Con from 0.000593118 +++++++++++to 0.000593118
Heightened Def Con from 0.000593118 ++++++++++++to 0.000593118
Heightened Def Con from 0.000593118 ++++++++++++to 0.000593118
Heightened Def Con from 0.000593118 +++++++++++to 0.000593118
Heightened Def Con from 0.000593118 ++++++++++to 0.000593118
Heightened Def Con from 0.000593118 ++++++++++++to 0.000593118
Heightened Def Con from 0.000593118 ++++++++++++to 0.000593118
Heightened Def Con from 0.000593118 ++++++++++++to 0.000593118
Heightened Def Con from 0.000593118 ++++++++++++to 0.000593118
Heightened Def Con from 0.000593118 ++++++++++++to 0.000593118
Heightened Def Con from 0.000593118 ++++++++++++to 0.000593118
Heightened Def Con from 0.000593118 +++++++++++++to 0.000593118
Heightened Def Con from 0.000593118 +++++++++++++to 0.000593118
Heightened Def Con from 0.000593118 ++++++++++++to 0.000593118
Heightened Def Con from 0.000593118 ++++++++++++to 0.000593118
Heightened Def Con from 0.000593118 +++++++++++++to 0.000593118
Heightened Def Con from 0.000593118 ++++++++++++to 0.000593118
Heightened Def Con from 0.000593118 ++++++++++++to 0.000593118
Heightened Def Con from 0.000593118 ++++++++++++to 0.000593118
Heightened Def Con from 0.000593118 +++++++++++++to 0.000593118
Heightened Def Con from 0.000593118 ++++++++++++to 0.000593118
Heightened Def Con from 0.000593118 ++++++++++++to 0.000593118
Heightened Def Con from 0.000593118 ++++++++++++to 0.000593118
Heightened Def Con from 0.000593118 ++++++++++++to 0.000593118
Heightened Def Con from 0.000593118 +++++++++++++to 0.000593118
Heightened Def Con from 0.000593118 +++++++++++++to 0.000593118
Heightened Def Con from 0.000593118 +++++++++++++to 0.000593118
Heightened Def Con from 0.000593118 +++++++++++++to 0.000593118
Heightened Def Con from 0.000593118 +++++++++++++to 0.000593118
Heightened Def Con from 0.000593118 +++++++++++++to 0.000593118
Heightened Def Con from 0.000593118 +++++++++++++to 0.000593118
Heightened Def Con from 0.000593118 +++++++++++++to 0.000593118
Heightened Def Con from 0.000593118 +++++++++++++to 0.000593118
Heightened Def Con from 0.000593118 +++++++++++++to 0.000593118
Heightened Def Con from 0.000593118 +++++++++to 0.000593118
Heightened Def Con from 0.000593118 +++++++++++++to 0.000593118
Heightened Def Con from 0.000593118 +++++++++++++to 0.000593118
Heightened Def Con from 0.000593118 +++++++++++++to 0.000593118
Heightened Def Con from 0.000593118 ++++++++++++++to 0.000593118
Heightened Def Con from 0.000593118 to 0.000593118
Heightened Def Con from 0.000593118 ++++++++++to 0.000593118
Heightened Def Con from 0.000593118 ++++++++++++to 0.000593118
Heightened Def Con from 0.000593118 +++++to 0.000593118
Heightened Def Con from 0.000593118 ++++++++++++to 0.000593118
Heightened Def Con from 0.000593118 +++++++++++to 0.000593118
Heightened Def Con from 0.000593118 ++++++++++++to 0.000593118
Heightened Def Con from 0.000593118 +++++++++++++to 0.000593118
Heightened Def Con from 0.000593118 +++++++++++++to 0.000593118
Heightened Def Con from 0.000593118 +++++++++++++to 0.000593118
Heightened Def Con from 0.000593118 +++++++++++++to 0.000593118
Heightened Def Con from 0.000593118 +++++++++++++to 0.000593118
Heightened Def Con from 0.000593118 +++++++++++++to 0.000593118
Heightened Def Con from 0.000593118 +++++++++++++to 0.000593118
Heightened Def Con from 0.000593118 ++++++++++++++to 0.000593118
Heightened Def Con from 0.000593118 ++++++++++++++to 0.000593118
Heightened Def Con from 0.000593118 ++++++++++++++to 0.000593118
Heightened Def Con from 0.000593118 ++++++++++++++to 0.000593118
Heightened Def Con from 0.000593118 ++++++++++++++to 0.000593118
Heightened Def Con from 0.000593118 ++++++++++++++to 0.000593118
Heightened Def Con from 0.000593118 ++++++++++++++to 0.000593118
Heightened Def Con from 0.000593118 ++++++++++++to 0.000593118
Heightened Def Con from 0.000593118 ++++++++++++to 0.000593118
Heightened Def Con from 0.000593118 ++++++++++++++to 0.000593118
Heightened Def Con from 0.000593118 +++++++++++++++to 0.000593118
Heightened Def Con from 0.000593118 to 0.000593118
Heightened Def Con from 0.000593118 to 0.000593118
Heightened Def Con from 0.000593118 to 0.000593118
Heightened Def Con from 0.000593118 +++++++++to 0.000593118
Heightened Def Con from 0.000593118 ++++++++++to 0.000593118
Heightened Def Con from 0.000593118 +++++++++++to 0.000593118
Heightened Def Con from 0.000593118 ++++++++++++to 0.000593118
Heightened Def Con from 0.000593118 +++++++++++++to 0.000593118
Heightened Def Con from 0.000593118 +++++++++++++to 0.000593118
Heightened Def Con from 0.000593118 +++++++++++++to 0.000593118
Heightened Def Con from 0.000593118 ++++++++++++++to 0.000593118
Heightened Def Con from 0.000593118 ++++++++++++++to 0.000593118
Heightened Def Con from 0.000593118 ++++++++++++++to 0.000593118
Heightened Def Con from 0.000593118 ++++++++++++++to 0.000593118
Heightened Def Con from 0.000593118 ++++++++++++++to 0.000593118
Heightened Def Con from 0.000593118 ++++++++++++++to 0.000593118
Heightened Def Con from 0.000593118 ++++++++++++++to 0.000593118
Heightened Def Con from 0.000593118 +++++++++++++++to 0.000593118
Heightened Def Con from 0.000593118 to 0.000593118
Heightened Def Con from 0.000593118 to 0.000593118
Heightened Def Con from 0.000593118 to 0.000593118
Heightened Def Con from 0.000593118 +++++++to 0.000593118
Heightened Def Con from 0.000593118 to 0.000593118
Heightened Def Con from 0.000593118 ++++++to 0.000593118
Heightened Def Con from 0.000593118 +++++++to 0.000593118
Heightened Def Con from 0.000593118 to 0.000593118
Heightened Def Con from 0.000593118 +++to 0.000593118
Heightened Def Con from 0.000593118 ++++++++++++to 0.000593118
Heightened Def Con from 0.000593118 +++++++++++++to 0.000593118
Heightened Def Con from 0.000593118 +++++++++++++to 0.000593118
Heightened Def Con from 0.000593118 ++++++++++++++to 0.000593118
Heightened Def Con from 0.000593118 +++++++++++++++to 0.000593118
Heightened Def Con from 0.000593118 +++++++++++to 0.000593118
Heightened Def Con from 0.000593118 ++++++++++++to 0.000593118
Heightened Def Con from 0.000593118 ++++++++++to 0.000593118
Heightened Def Con from 0.000593118 +++++++++++++to 0.000593118
Heightened Def Con from 0.000593118 ++++++++++++++to 0.000593118
Heightened Def Con from 0.000593118 ++++++++++++++to 0.000593118
Heightened Def Con from 0.000593118 ++++++++++++++to 0.000593118
Heightened Def Con from 0.000593118 ++++++++++++++to 0.000593118
Heightened Def Con from 0.000593118 +++++++++++++++to 0.000593118
Heightened Def Con from 0.000593118 +++++++++++++to 0.000593118
Heightened Def Con from 0.000593118 ++++++++++++++to 0.000593118
Heightened Def Con from 0.000593118 ++++++++++++++to 0.000593118
Heightened Def Con from 0.000593118 ++++++++++++++to 0.000593118
Heightened Def Con from 0.000593118 +++++++++++++++to 0.000593118
Heightened Def Con from 0.000593118 +++++++++++++++to 0.000593118
Heightened Def Con from 0.000593118 +++++++++++++++to 0.000593118
Heightened Def Con from 0.000593118 +++++++++++++++to 0.000593118
Heightened Def Con from 0.000593118 +++++++++++++++to 0.000593118
Heightened Def Con from 0.000593118 +++++++++++++++to 0.000593118
Heightened Def Con from 0.000593118 +++++++++++++++to 0.000593118
Heightened Def Con from 0.000593118 +++++++++++++++to 0.000593118
Heightened Def Con from 0.000593118 +++++++++++++++to 0.000593118
Heightened Def Con from 0.000593118 ++++++++++++++++to 0.000593118
Heightened Def Con from 0.000593118 +++to 0.000593118
Heightened Def Con from 0.000593118 +to 0.000593118
Heightened Def Con from 0.000593118 to 0.000593118
Heightened Def Con from 0.000593118 to 0.000593118
Heightened Def Con from 0.000593118 to 0.000593118
Heightened Def Con from 0.000593118 ++++++++++to 0.000593118
Heightened Def Con from 0.000593118 ++++++++++++to 0.000593118
Heightened Def Con from 0.000593118 +++++++++++to 0.000593118
Heightened Def Con from 0.000593118 +++++++++++++to 0.000593118
Heightened Def Con from 0.000593118 +++++++++++++to 0.000593118
Heightened Def Con from 0.000593118 +++++++++++++to 0.000593118
Heightened Def Con from 0.000593118 ++++++++++++++to 0.000593118
Heightened Def Con from 0.000593118 ++++++++++++++to 0.000593118
Heightened Def Con from 0.000593118 ++++++++++++++to 0.000593118
Heightened Def Con from 0.000593118 ++++++++++++++to 0.000593118
Heightened Def Con from 0.000593118 +++++++++++++++to 0.000593118
Heightened Def Con from 0.000593118 +++++++++++++++to 0.000593118
Heightened Def Con from 0.000593118 +++++++++++++++to 0.000593118
Heightened Def Con from 0.000593118 +++++++++++++++to 0.000593118
Heightened Def Con from 0.000593118 +++++++++++++++to 0.000593118
Heightened Def Con from 0.000593118 +++++++++++++++to 0.000593118
Heightened Def Con from 0.000593118 +++++++++++++++to 0.000593118
Heightened Def Con from 0.000593118 +++++++++++++++to 0.000593118
Heightened Def Con from 0.000593118 +++++++++++++++to 0.000593118
Heightened Def Con from 0.000593118 ++++++++++++++++to 0.000593118
Heightened Def Con from 0.000593118 to 0.000593118
Heightened Def Con from 0.000593118 to 0.000593118
Heightened Def Con from 0.000593118 to 0.000593118
Heightened Def Con from 0.000593118 to 0.000593118
Heightened Def Con from 0.000593118 +++++to 0.000593118
Heightened Def Con from 0.000593118 +to 0.000593118
Heightened Def Con from 0.000593118 +to 0.000593118
Heightened Def Con from 0.000593118 ++++++++++to 0.000593118
Heightened Def Con from 0.000593118 ++++++++++++to 0.000593118
Heightened Def Con from 0.000593118 ++++++++++++to 0.000593118
Heightened Def Con from 0.000593118 +++++++++++++to 0.000593118
Heightened Def Con from 0.000593118 +++++++++++++to 0.000593118
Heightened Def Con from 0.000593118 +++to 0.000593118
Heightened Def Con from 0.000593118 ++++++++++++++to 0.000593118
Heightened Def Con from 0.000593118 ++++++++++++++to 0.000593118
Heightened Def Con from 0.000593118 ++++++++++++++to 0.000593118
Heightened Def Con from 0.000593118 +++++++++++++++to 0.000593118
Heightened Def Con from 0.000593118 +++++++++++++++to 0.000593118
Heightened Def Con from 0.000593118 +++++++++++++++to 0.000593118
Heightened Def Con from 0.000593118 +++++++++++++++to 0.000593118
Heightened Def Con from 0.000593118 +++++++++++++++to 0.000593118
Heightened Def Con from 0.000593118 +++++++++++++++to 0.000593118
Heightened Def Con from 0.000593118 ++++++++++++++++to 0.000593118
Heightened Def Con from 0.000593118 to 0.000593118
Heightened Def Con from 0.000593118 to 0.000593118
Heightened Def Con from 0.000593118 to 0.000593118
Heightened Def Con from 0.000593118 ++to 0.000593118
Heightened Def Con from 0.000593118 ++++++to 0.000593118
Heightened Def Con from 0.000593118 to 0.000593118
Heightened Def Con from 0.000593118 ++++++++++to 0.000593118
Heightened Def Con from 0.000593118 +++++++++++to 0.000593118
Heightened Def Con from 0.000593118 +++++++++++++to 0.000593118
Heightened Def Con from 0.000593118 ++++++++++++++to 0.000593118
Heightened Def Con from 0.000593118 ++++++++++++++to 0.000593118
Heightened Def Con from 0.000593118 ++++++++++++++to 0.000593118
Heightened Def Con from 0.000593118 ++++++++++++++++to 0.000593118
Heightened Def Con from 0.000593118 +++++++++to 0.000593118
Heightened Def Con from 0.000593118 ++++++++++++to 0.000593118
Heightened Def Con from 0.000593118 +++++++++++++to 0.000593118
Heightened Def Con from 0.000593118 ++++++++++++++to 0.000593118
Heightened Def Con from 0.000593118 ++++++++++++++to 0.000593118
Heightened Def Con from 0.000593118 +++++++++++++++to 0.000593118
Heightened Def Con from 0.000593118 +++++++++++++++to 0.000593118
Heightened Def Con from 0.000593118 +++++++++++++++to 0.000593118
Heightened Def Con from 0.000593118 +++++++++++++++to 0.000593118
Heightened Def Con from 0.000593118 +++++++++++++++to 0.000593118
Heightened Def Con from 0.000593118 +++++++++++++++to 0.000593118
Heightened Def Con from 0.000593118 ++++++++++++++++to 0.000593118
Heightened Def Con from 0.000593118 +++to 0.000593118
Heightened Def Con from 0.000593118 +++to 0.000593118
Heightened Def Con from 0.000593118 to 0.000593118
Heightened Def Con from 0.000593118 +++++++++to 0.000593118
Heightened Def Con from 0.000593118 ++++++++to 0.000593118
Heightened Def Con from 0.000593118 +++++++++++to 0.000593118
Heightened Def Con from 0.000593118 +++++++++++++to 0.000593118
Heightened Def Con from 0.000593118 ++++++++++++++to 0.000593118
Heightened Def Con from 0.000593118 ++++++++++++++to 0.000593118
Heightened Def Con from 0.000593118 ++++++++++++++to 0.000593118
Heightened Def Con from 0.000593118 +++++++++++++++to 0.000593118
Heightened Def Con from 0.000593118 +++++++++++++++to 0.000593118
Heightened Def Con from 0.000593118 +++++++++++++++to 0.000593118
Heightened Def Con from 0.000593118 +++++++++++++++to 0.000593118
Heightened Def Con from 0.000593118 +++++++++++++++to 0.000593118
Heightened Def Con from 0.000593118 +++++++++++++++to 0.000593118
Heightened Def Con from 0.000593118 ++++++++++++++++to 0.000593118
Heightened Def Con from 0.000593118 to 0.000593118
Heightened Def Con from 0.000593118 +to 0.000593118
Heightened Def Con from 0.000593118 to 0.000593118
Heightened Def Con from 0.000593118 +++++++++++to 0.000593118
Heightened Def Con from 0.000593118 +++++++++++to 0.000593118
Heightened Def Con from 0.000593118 +++++++++++to 0.000593118
Heightened Def Con from 0.000593118 ++++++++++++to 0.000593118
Heightened Def Con from 0.000593118 ++++++++++++to 0.000593118
Heightened Def Con from 0.000593118 ++++++++++++to 0.000593118
Heightened Def Con from 0.000593118 ++++++++++++++to 0.000593118
Heightened Def Con from 0.000593118 ++++++++++++++to 0.000593118
Heightened Def Con from 0.000593118 ++++++++++++++to 0.000593118
Heightened Def Con from 0.000593118 +++++++++++++++to 0.000593118
Heightened Def Con from 0.000593118 +++++++++++++++to 0.000593118
Heightened Def Con from 0.000593118 +++++++++++++++to 0.000593118
Heightened Def Con from 0.000593118 +++++++++++++++to 0.000593118
Heightened Def Con from 0.000593118 +++++++++++++++to 0.000593118
Heightened Def Con from 0.000593118 +++++++++++++++to 0.000593118
Heightened Def Con from 0.000593118 +++++++++++++++to 0.000593118
Heightened Def Con from 0.000593118 +++++++++++++++to 0.000593118
Heightened Def Con from 0.000593118 +++++++++++++++to 0.000593118
Heightened Def Con from 0.000593118 +++++++++++++++to 0.000593118
Heightened Def Con from 0.000593118 ++++++++++++++++to 0.000593118
Heightened Def Con from 0.000593118 to 0.000593118
Heightened Def Con from 0.000593118 to 0.000593118
Heightened Def Con from 0.000593118 to 0.000593118
Heightened Def Con from 0.000593118 +to 0.000593118
Heightened Def Con from 0.000593118 ++++++to 0.000593118
Heightened Def Con from 0.000593118 to 0.000593118
Heightened Def Con from 0.000593118 +++++++++++to 0.000593118
Heightened Def Con from 0.000593118 ++++++++++++to 0.000593118
Heightened Def Con from 0.000593118 ++++++++++to 0.000593118
Heightened Def Con from 0.000593118 ++++++++++++to 0.000593118
Heightened Def Con from 0.000593118 ++++++++++to 0.000593118
Heightened Def Con from 0.000593118 ++++++++++++to 0.000593118
Heightened Def Con from 0.000593118 ++++++++++++to 0.000593118
Heightened Def Con from 0.000593118 ++++++++++++to 0.000593118
Heightened Def Con from 0.000593118 +++++++++++++to 0.000593118
Heightened Def Con from 0.000593118 +++++++++++++to 0.000593118
Heightened Def Con from 0.000593118 +++++++++++++to 0.000593118
Heightened Def Con from 0.000593118 +++++++++++++to 0.000593118
Heightened Def Con from 0.000593118 +++++++++++++to 0.000593118
Heightened Def Con from 0.000593118 +++++++++++++to 0.000593118
Heightened Def Con from 0.000593118 ++++++++++++++to 0.000593118
Heightened Def Con from 0.000593118 ++++++++++++++to 0.000593118
Heightened Def Con from 0.000593118 ++++++++++++++to 0.000593118
Heightened Def Con from 0.000593118 +++++++++++++++to 0.000593118
Heightened Def Con from 0.000593118 +to 0.000593118
Heightened Def Con from 0.000593118 +++++++++++++++to 0.000593118
Heightened Def Con from 0.000593118 +++++++++++++++to 0.000593118
Heightened Def Con from 0.000593118 +++++++++++++++to 0.000593118
Heightened Def Con from 0.000593118 ++++++++++++++++to 0.000593118
Heightened Def Con from 0.000593118 to 0.000593118
Heightened Def Con from 0.000593118 ++to 0.000593118
Heightened Def Con from 0.000593118 ++++++++++to 0.000593118
Heightened Def Con from 0.000593118 +++++++to 0.000593118
Heightened Def Con from 0.000593118 +++++++++to 0.000593118
Heightened Def Con from 0.000593118 +++++++++++to 0.000593118
Heightened Def Con from 0.000593118 ++++++++to 0.000593118
Heightened Def Con from 0.000593118 ++++++++to 0.000593118
Heightened Def Con from 0.000593118 ++++++to 0.000593118
Heightened Def Con from 0.000593118 ++++++++++++to 0.000593118
Heightened Def Con from 0.000593118 +++++++++++++to 0.000593118
Heightened Def Con from 0.000593118 ++++++++++++++to 0.000593118
Heightened Def Con from 0.000593118 ++++++++++++++to 0.000593118
Heightened Def Con from 0.000593118 ++++++++++++++to 0.000593118
Heightened Def Con from 0.000593118 +++++++++++++++to 0.000593118
Heightened Def Con from 0.000593118 +++++++++++++++to 0.000593118
Heightened Def Con from 0.000593118 +++++++++++++++to 0.000593118
Heightened Def Con from 0.000593118 +++++++++++++++to 0.000593118
Heightened Def Con from 0.000593118 +++++++++++++++to 0.000593118
Heightened Def Con from 0.000593118 +++++++++++++++to 0.000593118
Heightened Def Con from 0.000593118 ++++++++++++++++to 0.000593118
Heightened Def Con from 0.000593118 to 0.000593118
Heightened Def Con from 0.000593118 to 0.000593118
Heightened Def Con from 0.000593118 to 0.000593118
Heightened Def Con from 0.000593118 to 0.000593118
Heightened Def Con from 0.000593118 ++to 0.000593118
Heightened Def Con from 0.000593118 +to 0.000593118
Heightened Def Con from 0.000593118 +++++++++++to 0.000593118
Heightened Def Con from 0.000593118 +++++++++++to 0.000593118
Heightened Def Con from 0.000593118 +++++++to 0.000593118
Heightened Def Con from 0.000593118 ++++++++++++to 0.000593118
Heightened Def Con from 0.000593118 to 0.000593118
Heightened Def Con from 0.000593118 ++++++to 0.000593118
Heightened Def Con from 0.000593118 +++++++++++++++to 0.000593118
Heightened Def Con from 0.000593118 +++++++++++++++to 0.000593118
Heightened Def Con from 0.000593118 ++++++++++++++++to 0.000593118
Heightened Def Con from 0.000593118 +++++++++++++++to 0.000593118
Heightened Def Con from 0.000593118 +++++++++++++++to 0.000593118
Heightened Def Con from 0.000593118 +++++++++++++++to 0.000593118
Heightened Def Con from 0.000593118 +++++++++++++++to 0.000593118
Heightened Def Con from 0.000593118 ++++++++++++++++to 0.000593118
Heightened Def Con from 0.000593118 ++++++++++++++++to 0.000593118
Heightened Def Con from 0.000593118 ++++++++++++++++to 0.000593118
Heightened Def Con from 0.000593118 ++++++++++++++++to 0.000593118
Heightened Def Con from 0.000593118 ++++++++++++++++to 0.000593118
Heightened Def Con from 0.000593118 ++++++++++++++++to 0.000593118
Heightened Def Con from 0.000593118 ++++++++++++++++to 0.000593118
Heightened Def Con from 0.000593118 ++++++++++++++++to 0.000593118
Heightened Def Con from 0.000593118 ++++++++++++++++to 0.000593118
Heightened Def Con from 0.000593118 ++++++++++++++++to 0.000593118
Heightened Def Con from 0.000593118 +++++++++++++++++to 0.000593118
Heightened Def Con from 0.000593118 to 0.000593118
Heightened Def Con from 0.000593118 to 0.000593118
Heightened Def Con from 0.000593118 to 0.000593118
Heightened Def Con from 0.000593118 +++++++++++++to 0.000593118
Heightened Def Con from 0.000593118 ++++++++to 0.000593118
Heightened Def Con from 0.000593118 ++++++to 0.000593118
Heightened Def Con from 0.000593118 ++++++to 0.000593118
Heightened Def Con from 0.000593118 ++++++++++++to 0.000593118
Heightened Def Con from 0.000593118 ++++++++++++to 0.000593118
Heightened Def Con from 0.000593118 +++++++++++++to 0.000593118
Heightened Def Con from 0.000593118 ++++++++to 0.000593118
Heightened Def Con from 0.000593118 +++++++++++++to 0.000593118
Heightened Def Con from 0.000593118 +++++++++++++to 0.000593118
Heightened Def Con from 0.000593118 +++++++++++++to 0.000593118
Heightened Def Con from 0.000593118 +++++++++++++++to 0.000593118
Heightened Def Con from 0.000593118 +++++++++++++++to 0.000593118
Heightened Def Con from 0.000593118 +++++++++++++++to 0.000593118
Heightened Def Con from 0.000593118 ++++++++++++++++to 0.000593118
Heightened Def Con from 0.000593118 ++++++++++++++++to 0.000593118
Heightened Def Con from 0.000593118 ++++++++++++++++to 0.000593118
Heightened Def Con from 0.000593118 ++++++++++++++++to 0.000593118
Heightened Def Con from 0.000593118 ++++++++++++++++to 0.000593118
Heightened Def Con from 0.000593118 ++++++++++++++++to 0.000593118
Heightened Def Con from 0.000593118 ++++++++++++++++to 0.000593118
Heightened Def Con from 0.000593118 ++++++++++++++++to 0.000593118
Heightened Def Con from 0.000593118 ++++++++++++++++to 0.000593118
Heightened Def Con from 0.000593118 +++++++++++++++++to 0.000593118
Heightened Def Con from 0.000593118 ++++++++++++++to 0.000593118
Heightened Def Con from 0.000593118 +++++++++++++to 0.000593118
Heightened Def Con from 0.000593118 +++++++++++++++to 0.000593118
Heightened Def Con from 0.000593118 +++++++++++++++to 0.000593118
Heightened Def Con from 0.000593118 +++++++++++++++to 0.000593118
Heightened Def Con from 0.000593118 +++++++++++++++to 0.000593118
Heightened Def Con from 0.000593118 +++++++++++++++to 0.000593118
Heightened Def Con from 0.000593118 ++++++++++++++++to 0.000593118
Heightened Def Con from 0.000593118 ++++++++++++++++to 0.000593118
Heightened Def Con from 0.000593118 ++++++++++++++++to 0.000593118
Heightened Def Con from 0.000593118 ++++++++++++++++to 0.000593118
Heightened Def Con from 0.000593118 ++++++++++++++++to 0.000593118
Heightened Def Con from 0.000593118 ++++++++++++++++to 0.000593118
Heightened Def Con from 0.000593118 ++++++++++++++++to 0.000593118
Heightened Def Con from 0.000593118 ++++++++++++++++to 0.000593118
Heightened Def Con from 0.000593118 +++++++++++++++++to 0.000593118
Heightened Def Con from 0.000593118 ++++++++++++++++to 0.000593118
Heightened Def Con from 0.000593118 +++++++++++++++++to 0.000593118
Heightened Def Con from 0.000593118 +++++++++++++++++to 0.000593118
Heightened Def Con from 0.000593118 +++++++++++++++++to 0.000593118
Heightened Def Con from 0.000593118 +++++++++++++++++to 0.000593118
Heightened Def Con from 0.000593118 +++++++++++++++++to 0.000593118
Heightened Def Con from 0.000593118 +++++++++++++++++to 0.000593118
Heightened Def Con from 0.000593118 +++++++++++++++++to 0.000593118
Heightened Def Con from 0.000593118 +++++++++++++++++to 0.000593118
Heightened Def Con from 0.000593118 +++++++++++++++++to 0.000593118
Heightened Def Con from 0.000593118 ++++++++++++++++++to 0.000593118
Heightened Def Con from 0.000593118 to 0.000593118
Heightened Def Con from 0.000593118 ++++++++++to 0.000593118
Heightened Def Con from 0.000593118 +to 0.000593118
Heightened Def Con from 0.000593118 to 0.000593118
Heightened Def Con from 0.000593118 to 0.000593118
Heightened Def Con from 0.000593118 +to 0.000593118
Heightened Def Con from 0.000593118 ++++++++++++to 0.000593118
Heightened Def Con from 0.000593118 ++++++++++++to 0.000593118
Heightened Def Con from 0.000593118 ++++++++++++++to 0.000593118
Heightened Def Con from 0.000593118 +++++++++++++to 0.000593118
Heightened Def Con from 0.000593118 +++++++++++++to 0.000593118
Heightened Def Con from 0.000593118 +++++++++++++++to 0.000593118
Heightened Def Con from 0.000593118 +++++++++++++++to 0.000593118
Heightened Def Con from 0.000593118 +++++++++++++++to 0.000593118
Heightened Def Con from 0.000593118 ++++++++++++++++to 0.000593118
Heightened Def Con from 0.000593118 ++++++++++++++++to 0.000593118
Heightened Def Con from 0.000593118 ++++++++++++++++to 0.000593118
Heightened Def Con from 0.000593118 +++++++++++++++++to 0.000593118
Heightened Def Con from 0.000593118 +++++++++++++++++to 0.000593118
Heightened Def Con from 0.000593118 +++++++++++++++++to 0.000593118
Heightened Def Con from 0.000593118 +++++++++++++++++to 0.000593118
Heightened Def Con from 0.000593118 +++++++++++++++++to 0.000593118
Heightened Def Con from 0.000593118 +++++++++++++++++to 0.000593118
Heightened Def Con from 0.000593118 +++++++++++++++++to 0.000593118
Heightened Def Con from 0.000593118 +++++++++++++++++to 0.000593118
Heightened Def Con from 0.000593118 +++++++++++++++++to 0.000593118
Heightened Def Con from 0.000593118 +++++++++++++++++to 0.000593118
Heightened Def Con from 0.000593118 +++++++++++++++++to 0.000593118
Heightened Def Con from 0.000593118 ++++++++++++++++++to 0.000593118
Heightened Def Con from 0.000593118 +++++++++++++++to 0.000593118
Heightened Def Con from 0.000593118 ++++++++++to 0.000593118
Heightened Def Con from 0.000593118 ++++++++++++++++to 0.000593118
Heightened Def Con from 0.000593118 +++++++++++++++to 0.000593118
Heightened Def Con from 0.000593118 +++++++++++++++to 0.000593118
Heightened Def Con from 0.000593118 +++++++++++++++to 0.000593118
Heightened Def Con from 0.000593118 +++++++++++++++to 0.000593118
Heightened Def Con from 0.000593118 ++++++++++++++++to 0.000593118
Heightened Def Con from 0.000593118 ++++++++++++++++to 0.000593118
Heightened Def Con from 0.000593118 ++++++++++++++++to 0.000593118
Heightened Def Con from 0.000593118 +++++++++++++++++to 0.000593118
Heightened Def Con from 0.000593118 +++++++++++++++++to 0.000593118
Heightened Def Con from 0.000593118 +++++++++++++++++to 0.000593118
Heightened Def Con from 0.000593118 +++++++++++++++++to 0.000593118
Heightened Def Con from 0.000593118 +++++++++++++++++to 0.000593118
Heightened Def Con from 0.000593118 ++++++++++++++++++to 0.000593118
Heightened Def Con from 0.000593118 ++++++++++++++++++to 0.000593118
Heightened Def Con from 0.000593118 ++++++++++++++++++to 0.000593118
Heightened Def Con from 0.000593118 ++++++++++++++++++to 0.000593118
Heightened Def Con from 0.000593118 ++++++++++++++++++to 0.000593118
Heightened Def Con from 0.000593118 ++++++++++++++++++to 0.000593118
Heightened Def Con from 0.000593118 ++++++++++++++++++to 0.000593118
Heightened Def Con from 0.000593118 ++++++++++++++++++to 0.000593118
Heightened Def Con from 0.000593118 ++++++++++++++++++to 0.000593118
Heightened Def Con from 0.000593118 ++++++++++++++++++to 0.000593118
Heightened Def Con from 0.000593118 +++++++++++++++++++to 0.000593118
Heightened Def Con from 0.000593118 +++++++++++++++++++to 0.000593118
Heightened Def Con from 0.000593118 +++++++++++++++++++to 0.000593118
Heightened Def Con from 0.000593118 +++++++++++++++++++to 0.000593118
Heightened Def Con from 0.000593118 +++++++++++++++++++to 0.000593118
Heightened Def Con from 0.000593118 +++++++++++++++++++to 0.000593118
Heightened Def Con from 0.000593118 +++++++++++++++++++to 0.000593118
Heightened Def Con from 0.000593118 +++++++++++++++++++to 0.000593118
Heightened Def Con from 0.000593118 +++++++++++++++++++to 0.000593118
Heightened Def Con from 0.000593118 +++++++++++++++++++to 0.000593118
Heightened Def Con from 0.000593118 +++++++++++++++++++to 0.000593118
Heightened Def Con from 0.000593118 +++++++++++++++++++to 0.000593118
Heightened Def Con from 0.000593118 +++++++++++++++++++to 0.000593118
Heightened Def Con from 0.000593118 +++++++++++++++++++to 0.000593118
Heightened Def Con from 0.000593118 +++++++++++++++++++to 0.000593118
Heightened Def Con from 0.000593118 +++++++++++++++++++to 0.000593118
Heightened Def Con from 0.000593118 +++++++++++++++++++to 0.000593118
Heightened Def Con from 0.000593118 +++++++++++++++++++to 0.000593118
Heightened Def Con from 0.000593118 ++++++++++++++++++++to 0.000593119
Heightened Def Con from 0.000593119 ++to 0.000593119
Heightened Def Con from 0.000593119 to 0.000593119
Heightened Def Con from 0.000593119 to 0.000593119
Heightened Def Con from 0.000593119 to 0.000593119
Heightened Def Con from 0.000593119 ++++++++to 0.000593119
Heightened Def Con from 0.000593119 to 0.000593119
Heightened Def Con from 0.000593119 to 0.000593119
Heightened Def Con from 0.000593119 to 0.000593119
Heightened Def Con from 0.000593119 +++++++++++++to 0.000593119
Heightened Def Con from 0.000593119 ++++++++++++to 0.000593119
Heightened Def Con from 0.000593119 +++++++++++++++to 0.000593119
Heightened Def Con from 0.000593119 +++++++++++++++++to 0.000593119
Heightened Def Con from 0.000593119 +++++++++++++++++to 0.000593119
Heightened Def Con from 0.000593119 ++++++++++++++++++to 0.000593119
Heightened Def Con from 0.000593119 ++++++++++++++++++to 0.000593119
Heightened Def Con from 0.000593119 ++++++++++++++++++to 0.000593119
Heightened Def Con from 0.000593119 ++++++++++++++++++to 0.000593119
Heightened Def Con from 0.000593119 ++++++++++++++++++to 0.000593119
Heightened Def Con from 0.000593119 ++++++++++++++++++to 0.000593119
Heightened Def Con from 0.000593119 ++++++++++++++++++to 0.000593119
Heightened Def Con from 0.000593119 ++++++++++++++++++to 0.000593119
Heightened Def Con from 0.000593119 ++++++++++++++++++to 0.000593119
Heightened Def Con from 0.000593119 +++++++++++++++++++to 0.000593119
Heightened Def Con from 0.000593119 +++++++++++++++++++to 0.000593119
Heightened Def Con from 0.000593119 +++++++++++++++++++to 0.000593119
Heightened Def Con from 0.000593119 +++++++++++++++++++to 0.000593119
Heightened Def Con from 0.000593119 +++++++++++++++++++to 0.000593119
Heightened Def Con from 0.000593119 +++++++++++++++++++to 0.000593119
Heightened Def Con from 0.000593119 ++++++++++++++++++++to 0.000593119
Heightened Def Con from 0.000593119 +++to 0.000593119
Heightened Def Con from 0.000593119 to 0.000593119
Heightened Def Con from 0.000593119 to 0.000593119
Heightened Def Con from 0.000593119 to 0.000593119
Heightened Def Con from 0.000593119 to 0.000593119
Heightened Def Con from 0.000593119 ++++++++++++++to 0.000593119
Heightened Def Con from 0.000593119 +++++++++++++++to 0.000593119
Heightened Def Con from 0.000593119 ++++++++++++++++to 0.000593119
Heightened Def Con from 0.000593119 ++++++++++++++++to 0.000593119
Heightened Def Con from 0.000593119 +++++++++++++++to 0.000593119
Heightened Def Con from 0.000593119 ++++++++++++++++to 0.000593119
Heightened Def Con from 0.000593119 +++++++++++++++to 0.000593119
Heightened Def Con from 0.000593119 ++++++++++++++++to 0.000593119
Heightened Def Con from 0.000593119 ++++++++++++++++++to 0.000593119
Heightened Def Con from 0.000593119 ++++++++++++++++++to 0.000593119
Heightened Def Con from 0.000593119 ++++++++++++++++++to 0.000593119
Heightened Def Con from 0.000593119 +++++++++++++++++++to 0.000593119
Heightened Def Con from 0.000593119 +++++++++++++++++++to 0.000593119
Heightened Def Con from 0.000593119 +++++++++++++++++++to 0.000593119
Heightened Def Con from 0.000593119 +++++++++++++++++++to 0.000593119
Heightened Def Con from 0.000593119 ++++++++++++++++++++to 0.000593119
Heightened Def Con from 0.000593119 to 0.000593119
Heightened Def Con from 0.000593119 +++++++++++++to 0.000593119
Heightened Def Con from 0.000593119 to 0.000593119
Heightened Def Con from 0.000593119 +++++++++++++to 0.000593119
Heightened Def Con from 0.000593119 +++++++++++++to 0.000593119
Heightened Def Con from 0.000593119 ++++++++++++++to 0.000593119
Heightened Def Con from 0.000593119 ++++++++++++++to 0.000593119
Heightened Def Con from 0.000593119 +++++++++++++++to 0.000593119
Heightened Def Con from 0.000593119 ++++++++++++++++to 0.000593119
Heightened Def Con from 0.000593119 +++++++++++++++++to 0.000593119
Heightened Def Con from 0.000593119 +++++++++++++++++to 0.000593119
Heightened Def Con from 0.000593119 ++++++++++++++++++to 0.000593119
Heightened Def Con from 0.000593119 +++++++++++++++++++to 0.000593119
Heightened Def Con from 0.000593119 +++++++++++++++++++to 0.000593119
Heightened Def Con from 0.000593119 +++++++++++++++++++to 0.000593119
Heightened Def Con from 0.000593119 ++++++++++++++++++++to 0.000593119
Heightened Def Con from 0.000593119 +++++++++++++++++++to 0.000593119
Heightened Def Con from 0.000593119 +++++++++++++++++++to 0.000593119
Heightened Def Con from 0.000593119 +++++++++++++++++++to 0.000593119
Heightened Def Con from 0.000593119 ++++++++++++++++++++to 0.000593119
Heightened Def Con from 0.000593119 +++++++++++++++++++to 0.000593119
Heightened Def Con from 0.000593119 ++++++++++++++++++++to 0.000593119
Heightened Def Con from 0.000593119 ++++++++++++++++++++to 0.000593119
Heightened Def Con from 0.000593119 ++++++++++++++++++++to 0.000593119
Heightened Def Con from 0.000593119 ++++++++++++++++++++to 0.000593119
Heightened Def Con from 0.000593119 ++++++++++++++++++++to 0.000593119
Heightened Def Con from 0.000593119 ++++++++++++++++++++to 0.000593119
Heightened Def Con from 0.000593119 ++++++++++++++++++++to 0.000593119
Heightened Def Con from 0.000593119 ++++++++++++++++++++to 0.000593119
Heightened Def Con from 0.000593119 ++++++++++++++++++++to 0.000593119
Heightened Def Con from 0.000593119 ++++++++++++++++++++to 0.000593119
Heightened Def Con from 0.000593119 ++++++++++++++++++++to 0.000593119
Heightened Def Con from 0.000593119 ++++++++++++++++++++to 0.000593119
Heightened Def Con from 0.000593119 ++++++++++++++++++++to 0.000593119
Heightened Def Con from 0.000593119 ++++++++++++++++++++to 0.000593119
Heightened Def Con from 0.000593119 ++++++++++++++++++++to 0.000593119
Heightened Def Con from 0.000593119 +++++++++++++++++++++to 0.000593119
Heightened Def Con from 0.000593119 to 0.000593119
Heightened Def Con from 0.000593119 to 0.000593119
Heightened Def Con from 0.000593119 to 0.000593119
Heightened Def Con from 0.000593119 to 0.000593119
Heightened Def Con from 0.000593119 ++++++++++++to 0.000593119
Heightened Def Con from 0.000593119 to 0.000593119
Heightened Def Con from 0.000593119 to 0.000593119
Heightened Def Con from 0.000593119 to 0.000593119
Heightened Def Con from 0.000593119 ++++++++++to 0.000593119
Heightened Def Con from 0.000593119 +++++++++++++++to 0.000593119
Heightened Def Con from 0.000593119 +++++++++++++++to 0.000593119
Heightened Def Con from 0.000593119 +++++++++++++++to 0.000593119
Heightened Def Con from 0.000593119 +++++++++++++++to 0.000593119
Heightened Def Con from 0.000593119 +++++++++++++++to 0.000593119
Heightened Def Con from 0.000593119 ++++++++++++++++to 0.000593119
Heightened Def Con from 0.000593119 +++++++++++++++++to 0.000593119
Heightened Def Con from 0.000593119 ++++++++++++++++to 0.000593119
Heightened Def Con from 0.000593119 ++++++++++++++++to 0.000593119
Heightened Def Con from 0.000593119 ++++++++++++++++to 0.000593119
Heightened Def Con from 0.000593119 ++++++++++++++++to 0.000593119
Heightened Def Con from 0.000593119 +++++++++++++++++to 0.000593119
Heightened Def Con from 0.000593119 ++++++++++++++++++to 0.000593119
Heightened Def Con from 0.000593119 ++++++++++++++++++to 0.000593119
Heightened Def Con from 0.000593119 +++++++++++++++++++to 0.000593119
Heightened Def Con from 0.000593119 +++++++++++++++++++to 0.000593119
Heightened Def Con from 0.000593119 +++++++++++++++++++to 0.000593119
Heightened Def Con from 0.000593119 ++++++++++++++++++++to 0.000593119
Heightened Def Con from 0.000593119 ++++++++++++++++++++to 0.000593119
Heightened Def Con from 0.000593119 ++++++++++++++++++++to 0.000593119
Heightened Def Con from 0.000593119 ++++++++++++++++++++to 0.000593119
Heightened Def Con from 0.000593119 ++++++++++++++++++++to 0.000593119
Heightened Def Con from 0.000593119 ++++++++++++++++++++to 0.000593119
Heightened Def Con from 0.000593119 ++++++++++++++++++++to 0.000593119
Heightened Def Con from 0.000593119 ++++++++++++++++++++to 0.000593119
Heightened Def Con from 0.000593119 ++++++++++++++++++++to 0.000593119
Heightened Def Con from 0.000593119 ++++++++++++++++++++to 0.000593119
Heightened Def Con from 0.000593119 ++++++++++++++++++++to 0.000593119
Heightened Def Con from 0.000593119 ++++++++++++++++++++to 0.000593119
Heightened Def Con from 0.000593119 ++++++++++++++++++++to 0.000593119
Heightened Def Con from 0.000593119 +++++++++++++++++++++to 0.000593119
Heightened Def Con from 0.000593119 to 0.000593119
Heightened Def Con from 0.000593119 +++++to 0.000593119
Heightened Def Con from 0.000593119 +++++++++++++++to 0.000593119
Heightened Def Con from 0.000593119 ++++++++++++++++to 0.000593119
Heightened Def Con from 0.000593119 +++++++++++++++++to 0.000593119
Heightened Def Con from 0.000593119 +++++++++++++++++to 0.000593119
Heightened Def Con from 0.000593119 +++++++++++++++++to 0.000593119
Heightened Def Con from 0.000593119 +++++++++++++++++++to 0.000593119
Heightened Def Con from 0.000593119 ++++++++++++++++++++to 0.000593119
Heightened Def Con from 0.000593119 +++++++++++++++++++to 0.000593119
Heightened Def Con from 0.000593119 +++++++++++++++++++to 0.000593119
Heightened Def Con from 0.000593119 +++++++++++++++++++to 0.000593119
Heightened Def Con from 0.000593119 +++++++++++++++++++to 0.000593119
Heightened Def Con from 0.000593119 +++++++++++++++++++to 0.000593119
Heightened Def Con from 0.000593119 +++++++++++++++++++to 0.000593119
Heightened Def Con from 0.000593119 +++++++++++++++++++to 0.000593119
Heightened Def Con from 0.000593119 ++++++++++++++++++++to 0.000593119
Heightened Def Con from 0.000593119 +++++++++++++++++++to 0.000593119
Heightened Def Con from 0.000593119 +++++++++++++++++++++to 0.000593119
Heightened Def Con from 0.000593119 +++++to 0.000593119
Heightened Def Con from 0.000593119 to 0.000593119
Heightened Def Con from 0.000593119 to 0.000593119
Heightened Def Con from 0.000593119 ++++to 0.000593119
Heightened Def Con from 0.000593119 to 0.000593119
Heightened Def Con from 0.000593119 ++++++++++++++++to 0.000593119
Heightened Def Con from 0.000593119 ++++++++++++++to 0.000593119
Heightened Def Con from 0.000593119 +++++++++++++++to 0.000593119
Heightened Def Con from 0.000593119 +++++++++++++++to 0.000593119
Heightened Def Con from 0.000593119 +++++++++++++++to 0.000593119
Heightened Def Con from 0.000593119 ++++++++++++++++to 0.000593119
Heightened Def Con from 0.000593119 +++++++++++++++to 0.000593119
Heightened Def Con from 0.000593119 +++++++++++++++to 0.000593119
Heightened Def Con from 0.000593119 ++++++++++++++++to 0.000593119
Heightened Def Con from 0.000593119 +++++++++++++++++to 0.000593119
Heightened Def Con from 0.000593119 +++++++++++++++++to 0.000593119
Heightened Def Con from 0.000593119 +++++++++++++++++to 0.000593119
Heightened Def Con from 0.000593119 ++++++++++++++++++to 0.000593119
Heightened Def Con from 0.000593119 ++++++++++++++++++to 0.000593119
Heightened Def Con from 0.000593119 ++++++++++++++++++to 0.000593119
Heightened Def Con from 0.000593119 ++++++++++++++++++to 0.000593119
Heightened Def Con from 0.000593119 +++++++++++++++++++to 0.000593119
Heightened Def Con from 0.000593119 +++++++++++++++++++to 0.000593119
Heightened Def Con from 0.000593119 +++++++++++++++++++to 0.000593119
Heightened Def Con from 0.000593119 +++++++++++++++++++to 0.000593119
Heightened Def Con from 0.000593119 +++++++++++++++++++to 0.000593119
Heightened Def Con from 0.000593119 +++++++++++++++++++to 0.000593119
Heightened Def Con from 0.000593119 +++++++++++++++++++to 0.000593119
Heightened Def Con from 0.000593119 +++++++++++++++++++to 0.000593119
Heightened Def Con from 0.000593119 ++++++++++++++++++++to 0.000593119
Heightened Def Con from 0.000593119 ++++++++++++++++++++to 0.000593119
Heightened Def Con from 0.000593119 ++++++++++++++++++++to 0.000593119
Heightened Def Con from 0.000593119 ++++++++++++++++++++to 0.000593119
Heightened Def Con from 0.000593119 ++++++++++++++++++++to 0.000593119
Heightened Def Con from 0.000593119 ++++++++++++++++++++to 0.000593119
Heightened Def Con from 0.000593119 ++++++++++++++++++++to 0.000593119
Heightened Def Con from 0.000593119 ++++++++++++++++++++to 0.000593119
Heightened Def Con from 0.000593119 ++++++++++++++++++++to 0.000593119
Heightened Def Con from 0.000593119 ++++++++++++++++++++to 0.000593119
Heightened Def Con from 0.000593119 ++++++++++++++++++++to 0.000593119
Heightened Def Con from 0.000593119 ++++++++++++++++++++to 0.000593119
Heightened Def Con from 0.000593119 ++++++++++++++++++++to 0.000593119
Heightened Def Con from 0.000593119 +++++++++++++++++++++to 0.000593119
Heightened Def Con from 0.000593119 +++++++++++++++++++++to 0.000593119
Heightened Def Con from 0.000593119 +++++++++++++++++++++to 0.000593119
Heightened Def Con from 0.000593119 +++++++++++++++++++++to 0.000593119
Heightened Def Con from 0.000593119 +++++++++++++++++++++to 0.000593119
Heightened Def Con from 0.000593119 +++++++++++++++++++++to 0.000593119
Heightened Def Con from 0.000593119 +++++++++++++++++++++to 0.000593119
Heightened Def Con from 0.000593119 +++++++++++++++++++++to 0.000593119
Heightened Def Con from 0.000593119 +++++++++++++++++++++to 0.000593119
Heightened Def Con from 0.000593119 +++++++++++++++++++++to 0.000593119
Heightened Def Con from 0.000593119 +++++++++++++++++++++to 0.000593119
Heightened Def Con from 0.000593119 +++++++++++++++++++++to 0.000593119
Heightened Def Con from 0.000593119 +++++++++++++++++++++to 0.000593119
Heightened Def Con from 0.000593119 +++++++++++++++++++++to 0.000593119
Heightened Def Con from 0.000593119 +++++++++++++++++++++to 0.000593119
Heightened Def Con from 0.000593119 +++++++++++++++++++++to 0.000593119
Heightened Def Con from 0.000593119 +++++++++++++++++++++to 0.000593119
Heightened Def Con from 0.000593119 +++++++++++++++++++++to 0.000593119
Heightened Def Con from 0.000593119 +++++++++++++++++++++to 0.000593119
Heightened Def Con from 0.000593119 ++++++++++++++++++++++to 0.00059312
Heightened Def Con from 0.00059312 ++++++++++++++to 0.00059312
Heightened Def Con from 0.00059312 ++++++++++++to 0.00059312
Heightened Def Con from 0.00059312 ++++++++++++++++to 0.00059312
Heightened Def Con from 0.00059312 ++++++++++++++++to 0.00059312
Heightened Def Con from 0.00059312 +++++++++++++++++to 0.00059312
Heightened Def Con from 0.00059312 +++++++++++++++++to 0.00059312
Heightened Def Con from 0.00059312 +++++++++++++++++to 0.00059312
Heightened Def Con from 0.00059312 +++++++++++++++++++to 0.00059312
Heightened Def Con from 0.00059312 ++++++++++++++++++to 0.00059312
Heightened Def Con from 0.00059312 +++++++++++++++++++to 0.00059312
Heightened Def Con from 0.00059312 +++++++++++++++++++to 0.00059312
Heightened Def Con from 0.00059312 +++++++++++++++++++to 0.00059312
Heightened Def Con from 0.00059312 +++++++++++++++++++to 0.00059312
Heightened Def Con from 0.00059312 +++++++++++++++++++to 0.00059312
Heightened Def Con from 0.00059312 +++++++++++++++++++to 0.00059312
Heightened Def Con from 0.00059312 ++++++++++++++++++++to 0.00059312
Heightened Def Con from 0.00059312 ++++++++++++++++++++to 0.00059312
Heightened Def Con from 0.00059312 +++++++++++++++++++++to 0.00059312
Heightened Def Con from 0.00059312 ++++++++++++++++++++to 0.00059312
Heightened Def Con from 0.00059312 +++++++++++++++++++++to 0.00059312
Heightened Def Con from 0.00059312 +++++++++++++++++++++to 0.00059312
Heightened Def Con from 0.00059312 +++++++++++++++++++++to 0.00059312
Heightened Def Con from 0.00059312 ++++++++++++++++++++++to 0.00059312
Heightened Def Con from 0.00059312 to 0.00059312
Heightened Def Con from 0.00059312 to 0.00059312
Heightened Def Con from 0.00059312 to 0.00059312
Heightened Def Con from 0.00059312 to 0.00059312
Heightened Def Con from 0.00059312 +++++++++++to 0.00059312
Heightened Def Con from 0.00059312 +to 0.00059312
Heightened Def Con from 0.00059312 +++++to 0.00059312
Heightened Def Con from 0.00059312 +to 0.00059312
Heightened Def Con from 0.00059312 to 0.00059312
Heightened Def Con from 0.00059312 +to 0.00059312
Heightened Def Con from 0.00059312 +++++++++++to 0.00059312
Heightened Def Con from 0.00059312 +++++++++++++++++to 0.00059312
Heightened Def Con from 0.00059312 +++++++++++++++++to 0.00059312
Heightened Def Con from 0.00059312 ++++++++++++++++++to 0.00059312
Heightened Def Con from 0.00059312 ++++++++++++++++++to 0.00059312
Heightened Def Con from 0.00059312 ++++++++++++++++++to 0.00059312
Heightened Def Con from 0.00059312 ++++++++++++++++++to 0.00059312
Heightened Def Con from 0.00059312 +++++++++++++++++++to 0.00059312
Heightened Def Con from 0.00059312 ++++++++++++++++++++to 0.00059312
Heightened Def Con from 0.00059312 ++++++++++++++++++++to 0.00059312
Heightened Def Con from 0.00059312 +++++++++++++++++++++to 0.00059312
Heightened Def Con from 0.00059312 +++++++++++++++++++++to 0.00059312
Heightened Def Con from 0.00059312 +++++++++++++++++++++to 0.00059312
Heightened Def Con from 0.00059312 ++++++++++++++++++++++to 0.00059312
Heightened Def Con from 0.00059312 to 0.00059312
Heightened Def Con from 0.00059312 to 0.00059312
Heightened Def Con from 0.00059312 to 0.00059312
Heightened Def Con from 0.00059312 to 0.00059312
Heightened Def Con from 0.00059312 to 0.00059312
Heightened Def Con from 0.00059312 ++++++++++++++++to 0.00059312
Heightened Def Con from 0.00059312 ++++++++++++++++to 0.00059312
Heightened Def Con from 0.00059312 +++++++++++++++++to 0.00059312
Heightened Def Con from 0.00059312 ++++++++++++++++++to 0.00059312
Heightened Def Con from 0.00059312 +++++++++++++++++to 0.00059312
Heightened Def Con from 0.00059312 +++++++++++++++++++to 0.00059312
Heightened Def Con from 0.00059312 ++++++++++++++++++++to 0.00059312
Heightened Def Con from 0.00059312 ++++++++++++++++++++to 0.00059312
Heightened Def Con from 0.00059312 +++++++++++++++++++++to 0.00059312
Heightened Def Con from 0.00059312 +++++++++++++++++++++to 0.00059312
Heightened Def Con from 0.00059312 +++++++++++++++++++++to 0.00059312
Heightened Def Con from 0.00059312 +++++++++++++++++++++to 0.00059312
Heightened Def Con from 0.00059312 +++++++++++++++++++++to 0.00059312
Heightened Def Con from 0.00059312 ++++++++++++++++++++++to 0.00059312
Heightened Def Con from 0.00059312 ++++++++++++++++++++to 0.00059312
Heightened Def Con from 0.00059312 ++++++++++++++++++++to 0.00059312
Heightened Def Con from 0.00059312 ++++++++++++++++++++to 0.00059312
Heightened Def Con from 0.00059312 +++++++++++++++++++++to 0.00059312
Heightened Def Con from 0.00059312 +++++++++++++++++++++to 0.00059312
Heightened Def Con from 0.00059312 +++++++++++++++++++++to 0.00059312
Heightened Def Con from 0.00059312 +++++++++++++++++++++to 0.00059312
Heightened Def Con from 0.00059312 ++++++++++++++++++++++to 0.00059312
Heightened Def Con from 0.00059312 ++++++++++++++++++++++to 0.00059312
Heightened Def Con from 0.00059312 ++++++++++++++++++++++to 0.00059312
Heightened Def Con from 0.00059312 ++++++++++++++++++++++to 0.00059312
Heightened Def Con from 0.00059312 ++++++++++++++++++++++to 0.00059312
Heightened Def Con from 0.00059312 ++++++++++++++++++++++to 0.00059312
Heightened Def Con from 0.00059312 ++++++++++++++++++++++to 0.00059312
Heightened Def Con from 0.00059312 ++++++++++++++++++++++to 0.00059312
Heightened Def Con from 0.00059312 ++++++++++++++++++++++to 0.00059312
Heightened Def Con from 0.00059312 ++++++++++++++++++++++to 0.00059312
Heightened Def Con from 0.00059312 ++++++++++++++++++++++to 0.00059312
Heightened Def Con from 0.00059312 ++++++++++++++++++++++to 0.00059312
Heightened Def Con from 0.00059312 ++++++++++++++++++++++to 0.00059312
Heightened Def Con from 0.00059312 +++++++++++++++++++++++to 0.000593121
Heightened Def Con from 0.000593121 to 0.000593121
Heightened Def Con from 0.000593121 ++++++++++to 0.000593121
Heightened Def Con from 0.000593121 +++++++++++++++to 0.000593121
Heightened Def Con from 0.000593121 +++++++++++++++to 0.000593121
Heightened Def Con from 0.000593121 +++++++++++++++to 0.000593121
Heightened Def Con from 0.000593121 ++++++++++++++++++to 0.000593121
Heightened Def Con from 0.000593121 +++++++++++++++++++to 0.000593121
Heightened Def Con from 0.000593121 ++++++++++++++++++++to 0.000593121
Heightened Def Con from 0.000593121 +++++++++++++++++++to 0.000593121
Heightened Def Con from 0.000593121 +++++++++++++++++++to 0.000593121
Heightened Def Con from 0.000593121 +++++++++++++++++++++to 0.000593121
Heightened Def Con from 0.000593121 ++++++++++++++++++++++to 0.000593121
Heightened Def Con from 0.000593121 +++++++++++++++++++++to 0.000593121
Heightened Def Con from 0.000593121 +++++++++++++++++++++to 0.000593121
Heightened Def Con from 0.000593121 +++++++++++++++++++++to 0.000593121
Heightened Def Con from 0.000593121 +++++++++++++++++++++to 0.000593121
Heightened Def Con from 0.000593121 ++++++++++++++++++++++to 0.000593121
Heightened Def Con from 0.000593121 ++++++++++++++++++++++to 0.000593121
Heightened Def Con from 0.000593121 ++++++++++++++++++++++to 0.000593121
Heightened Def Con from 0.000593121 ++++++++++++++++++++++to 0.000593121
Heightened Def Con from 0.000593121 +++++++++++++++++++++++to 0.000593122
Heightened Def Con from 0.000593122 +++++to 0.000593122
Heightened Def Con from 0.000593122 to 0.000593122
Heightened Def Con from 0.000593122 to 0.000593122
Heightened Def Con from 0.000593122 +++++++++++++++to 0.000593122
Heightened Def Con from 0.000593122 +++++++++++++++to 0.000593122
Heightened Def Con from 0.000593122 to 0.000593122
Heightened Def Con from 0.000593122 ++++++++++++++++++to 0.000593122
Heightened Def Con from 0.000593122 +++++++++++++++++to 0.000593122
Heightened Def Con from 0.000593122 ++++++++++++++++++to 0.000593122
Heightened Def Con from 0.000593122 ++++++++++++++++++to 0.000593122
Heightened Def Con from 0.000593122 +++++++++++++++++++to 0.000593122
Heightened Def Con from 0.000593122 +++++++++++++++++++to 0.000593122
Heightened Def Con from 0.000593122 +++++++++++++++++++++to 0.000593122
Heightened Def Con from 0.000593122 +++++++++++++++++++++to 0.000593122
Heightened Def Con from 0.000593122 +++++++++++++++++++++to 0.000593122
Heightened Def Con from 0.000593122 +++++++++++++++++++++to 0.000593122
Heightened Def Con from 0.000593122 ++++++++++++++++++++++to 0.000593122
Heightened Def Con from 0.000593122 ++++++++++++++++++++++to 0.000593122
Heightened Def Con from 0.000593122 ++++++++++++++++++++++to 0.000593122
Heightened Def Con from 0.000593122 ++++++++++++++++++++++to 0.000593122
Heightened Def Con from 0.000593122 ++++++++++++++++++++++to 0.000593122
Heightened Def Con from 0.000593122 ++++++++++++++++++++++to 0.000593122
Heightened Def Con from 0.000593122 +++++++++++++++++++++++to 0.000593122
Heightened Def Con from 0.000593122 +++++++++++++++++++to 0.000593122
Heightened Def Con from 0.000593122 +++++++++++++++++++to 0.000593122
Heightened Def Con from 0.000593122 +++++++++++++++++++to 0.000593122
Heightened Def Con from 0.000593122 ++++++++++++++++++++to 0.000593122
Heightened Def Con from 0.000593122 +++++++++++++++++++++to 0.000593122
Heightened Def Con from 0.000593122 +++++++++++++++++++++to 0.000593122
Heightened Def Con from 0.000593122 +++++++++++++++++++++to 0.000593122
Heightened Def Con from 0.000593122 ++++++++++++++++++++++to 0.000593122
Heightened Def Con from 0.000593122 +++++++++++++++++++++++to 0.000593122
Heightened Def Con from 0.000593122 ++++++++++++++++++++++to 0.000593122
Heightened Def Con from 0.000593122 +++++++++++++++++++++to 0.000593122
Heightened Def Con from 0.000593122 +++++++++++++++++++++to 0.000593122
Heightened Def Con from 0.000593122 ++++++++++++++++++++++to 0.000593122
Heightened Def Con from 0.000593122 ++++++++++++++++++++++to 0.000593122
Heightened Def Con from 0.000593122 ++++++++++++++++++++++to 0.000593122
Heightened Def Con from 0.000593122 ++++++++++++++++++++++to 0.000593122
Heightened Def Con from 0.000593122 ++++++++++++++++++++++to 0.000593122
Heightened Def Con from 0.000593122 +++++++++++++++++++++++to 0.000593122
Heightened Def Con from 0.000593122 ++++++++++++++++++++++to 0.000593122
Heightened Def Con from 0.000593122 ++++++++++++++++++++++to 0.000593122
Heightened Def Con from 0.000593122 +++++++++++++++++++++++to 0.000593122
Heightened Def Con from 0.000593122 +++++++++++++++++++++++to 0.000593122
Heightened Def Con from 0.000593122 +++++++++++++++++++++++to 0.000593122
Heightened Def Con from 0.000593122 +++++++++++++++++++++++to 0.000593122
Heightened Def Con from 0.000593122 +++++++++++++++++++++++to 0.000593122
Heightened Def Con from 0.000593122 +++++++++++++++++++++++to 0.000593122
Heightened Def Con from 0.000593122 +++++++++++++++++++++++to 0.000593122
Heightened Def Con from 0.000593122 +++++++++++++++++++++++to 0.000593122
Heightened Def Con from 0.000593122 +++++++++++++++++++++++to 0.000593122
Heightened Def Con from 0.000593122 +++++++++++++++++++++++to 0.000593122
Heightened Def Con from 0.000593122 +++++++++++++++++++++++to 0.000593122
Heightened Def Con from 0.000593122 +++++++++++++++++++++++to 0.000593122
Heightened Def Con from 0.000593122 +++++++++++++++++++++++to 0.000593122
Heightened Def Con from 0.000593122 +++++++++++++++++++++++to 0.000593122
Heightened Def Con from 0.000593122 +++++++++++++++++++++++to 0.000593122
Heightened Def Con from 0.000593122 +++++++++++++++++++++++to 0.000593122
Heightened Def Con from 0.000593122 +++++++++++++++++++++++to 0.000593122
Heightened Def Con from 0.000593122 +++++++++++++++++++++++to 0.000593122
Heightened Def Con from 0.000593122 +++++++++++++++++++++++to 0.000593122
Heightened Def Con from 0.000593122 ++++++++++++++++++++++++to 0.000593124
Heightened Def Con from 0.000593124 to 0.000593124
Heightened Def Con from 0.000593124 to 0.000593124
Heightened Def Con from 0.000593124 to 0.000593124
Heightened Def Con from 0.000593124 to 0.000593124
Heightened Def Con from 0.000593124 +++++++++++++++++to 0.000593124
Heightened Def Con from 0.000593124 ++++++++++++++++to 0.000593124
Heightened Def Con from 0.000593124 ++++++++++++++++++++to 0.000593124
Heightened Def Con from 0.000593124 ++++++++++++++++++++++to 0.000593124
Heightened Def Con from 0.000593124 +++++++++++++++++++++to 0.000593124
Heightened Def Con from 0.000593124 +++++++++++++++++++++to 0.000593124
Heightened Def Con from 0.000593124 ++++++++++++++++++++++to 0.000593124
Heightened Def Con from 0.000593124 ++++++++++++++++++++++to 0.000593124
Heightened Def Con from 0.000593124 +++++++++++++++++++++++to 0.000593124
Heightened Def Con from 0.000593124 +++++++++++++++++++++++to 0.000593124
Heightened Def Con from 0.000593124 +++++++++++++++++++++++to 0.000593124
Heightened Def Con from 0.000593124 +++++++++++++++++++++++to 0.000593124
Heightened Def Con from 0.000593124 +++++++++++++++++++++++to 0.000593124
Heightened Def Con from 0.000593124 ++++++++++++++++++++++++to 0.000593125
Heightened Def Con from 0.000593125 ++++++++++++++++++++++++to 0.000593125
Heightened Def Con from 0.000593125 ++++++++++++++++++++++++to 0.000593125
Heightened Def Con from 0.000593125 ++++++++++++++++++++++++to 0.000593125
Heightened Def Con from 0.000593125 ++++++++++++++++++++++++to 0.000593125
Heightened Def Con from 0.000593125 ++++++++++++++++++++++++to 0.000593125
Heightened Def Con from 0.000593125 ++++++++++++++++++++++++to 0.000593125
Heightened Def Con from 0.000593125 ++++++++++++++++++++++++to 0.000593125
Heightened Def Con from 0.000593125 ++++++++++++++++++++++++to 0.000593125
Heightened Def Con from 0.000593125 ++++++++++++++++++++++++to 0.000593125
Heightened Def Con from 0.000593125 ++++++++++++++++++++++++to 0.000593125
Heightened Def Con from 0.000593125 ++++++++++++++++++++++++to 0.000593125
Heightened Def Con from 0.000593125 ++++++++++++++++++++++++to 0.000593125
Heightened Def Con from 0.000593125 ++++++++++++++++++++++++to 0.000593125
Heightened Def Con from 0.000593125 ++++++++++++++++++++++++to 0.000593125
Heightened Def Con from 0.000593125 ++++++++++++++++++++++++to 0.000593125
Heightened Def Con from 0.000593125 ++++++++++++++++++++++++to 0.000593125
Heightened Def Con from 0.000593125 ++++++++++++++++++++++++to 0.000593125
Heightened Def Con from 0.000593125 ++++++++++++++++++++++++to 0.000593125
Heightened Def Con from 0.000593125 ++++++++++++++++++++++++to 0.000593125
Heightened Def Con from 0.000593125 ++++++++++++++++++++++++to 0.000593125
Heightened Def Con from 0.000593125 +++++++++++++++++++++++++to 0.00059313
Heightened Def Con from 0.00059313 to 0.00059313
Heightened Def Con from 0.00059313 to 0.00059313
Heightened Def Con from 0.00059313 to 0.00059313
Heightened Def Con from 0.00059313 to 0.00059313
Heightened Def Con from 0.00059313 +++to 0.00059313
Heightened Def Con from 0.00059313 to 0.00059313
Heightened Def Con from 0.00059313 ++++++++++++to 0.00059313
Heightened Def Con from 0.00059313 +++++++++++++++++to 0.00059313
Heightened Def Con from 0.00059313 ++++++++++++++++++to 0.00059313
Heightened Def Con from 0.00059313 +++++++++++++++++to 0.00059313
Heightened Def Con from 0.00059313 +++++++++++++++++++to 0.00059313
Heightened Def Con from 0.00059313 +++++++++++++++++++++to 0.00059313
Heightened Def Con from 0.00059313 +++++++++++++++++++++to 0.00059313
Heightened Def Con from 0.00059313 ++++++++++++++++++++++to 0.00059313
Heightened Def Con from 0.00059313 +++++++++++++++++++++to 0.00059313
Heightened Def Con from 0.00059313 +++++++++++++++++++++to 0.00059313
Heightened Def Con from 0.00059313 +++++++++++++++++++++to 0.00059313
Heightened Def Con from 0.00059313 +++++++++++++++++++++to 0.00059313
Heightened Def Con from 0.00059313 ++++++++++++++++++++++to 0.00059313
Heightened Def Con from 0.00059313 ++++++++++++++++++++++to 0.00059313
Heightened Def Con from 0.00059313 ++++++++++++++++++++++to 0.00059313
Heightened Def Con from 0.00059313 ++++++++++++++++++++++to 0.00059313
Heightened Def Con from 0.00059313 ++++++++++++++++++++++to 0.00059313
Heightened Def Con from 0.00059313 +++++++++++++++++++++++to 0.00059313
Heightened Def Con from 0.00059313 +++++++++++++++++++++++to 0.00059313
Heightened Def Con from 0.00059313 +++++++++++++++++++++++to 0.00059313
Heightened Def Con from 0.00059313 +++++++++++++++++++++++to 0.00059313
Heightened Def Con from 0.00059313 ++++++++++++++++++++++++to 0.00059313
Heightened Def Con from 0.00059313 +++++++++++++++++++++++to 0.00059313
Heightened Def Con from 0.00059313 +++++++++++++++++++++++to 0.00059313
Heightened Def Con from 0.00059313 ++++++++++++++++++++++++to 0.00059313
Heightened Def Con from 0.00059313 ++++++++++++++++++++++++to 0.00059313
Heightened Def Con from 0.00059313 ++++++++++++++++++++++++to 0.00059313
Heightened Def Con from 0.00059313 ++++++++++++++++++++++++to 0.00059313
Heightened Def Con from 0.00059313 ++++++++++++++++++++++++to 0.00059313
Heightened Def Con from 0.00059313 ++++++++++++++++++++++++to 0.00059313
Heightened Def Con from 0.00059313 ++++++++++++++++++++++++to 0.00059313
Heightened Def Con from 0.00059313 ++++++++++++++++++++++++to 0.00059313
Heightened Def Con from 0.00059313 +++++++++++++++++++++++++to 0.000593131
Heightened Def Con from 0.000593131 +++++++++++++++to 0.000593131
Heightened Def Con from 0.000593131 +to 0.000593131
Heightened Def Con from 0.000593131 ++++++++++++++++++to 0.000593131
Heightened Def Con from 0.000593131 +++++++++++++to 0.000593131
Heightened Def Con from 0.000593131 ++++++++++++++++++to 0.000593131
Heightened Def Con from 0.000593131 ++++++++++++++++++++to 0.000593131
Heightened Def Con from 0.000593131 ++++++++++++++++++++++to 0.000593131
Heightened Def Con from 0.000593131 +++++++++++++++++++++++to 0.000593131
Heightened Def Con from 0.000593131 ++++++++++++++++++++++++to 0.000593131
Heightened Def Con from 0.000593131 ++++++++++++++++++++++++to 0.000593131
Heightened Def Con from 0.000593131 ++++++++++++++++++++++++to 0.000593131
Heightened Def Con from 0.000593131 ++++++++++++++++++++++++to 0.000593131
Heightened Def Con from 0.000593131 ++++++++++++++++++++++++to 0.000593131
Heightened Def Con from 0.000593131 ++++++++++++++++++++++++to 0.000593131
Heightened Def Con from 0.000593131 ++++++++++++++++++++++++to 0.000593131
Heightened Def Con from 0.000593131 ++++++++++++++++++++++++to 0.000593131
Heightened Def Con from 0.000593131 +++++++++++++++++++++++++to 0.000593132
Heightened Def Con from 0.000593132 to 0.000593132
Heightened Def Con from 0.000593132 to 0.000593132
Heightened Def Con from 0.000593132 to 0.000593132
Heightened Def Con from 0.000593132 ++++to 0.000593132
Heightened Def Con from 0.000593132 +to 0.000593132
Heightened Def Con from 0.000593132 +++++++++++++++to 0.000593132
Heightened Def Con from 0.000593132 +++++++++++++++++++to 0.000593132
Heightened Def Con from 0.000593132 +++++++++++++++to 0.000593132
Heightened Def Con from 0.000593132 +++++++++++++++++++to 0.000593132
Heightened Def Con from 0.000593132 +++++++++++++++++++++to 0.000593132
Heightened Def Con from 0.000593132 ++++++++++++++++++++to 0.000593132
Heightened Def Con from 0.000593132 ++++++++++++++++++++to 0.000593132
Heightened Def Con from 0.000593132 ++++++++++++++++++++++to 0.000593132
Heightened Def Con from 0.000593132 +++++++++++++++++++++to 0.000593132
Heightened Def Con from 0.000593132 ++++++++++++++++++++to 0.000593132
Heightened Def Con from 0.000593132 ++++++++++++++++++++++to 0.000593132
Heightened Def Con from 0.000593132 ++++++++++++++++++++++to 0.000593132
Heightened Def Con from 0.000593132 +++++++++++++++++++++++to 0.000593132
Heightened Def Con from 0.000593132 ++++++++++++++++++++++++to 0.000593132
Heightened Def Con from 0.000593132 +++++++++++++++++++++++to 0.000593132
Heightened Def Con from 0.000593132 +++++++++++++++++++++++to 0.000593132
Heightened Def Con from 0.000593132 +++++++++++++++++++++++to 0.000593132
Heightened Def Con from 0.000593132 ++++++++++++++++++++++++to 0.000593132
Heightened Def Con from 0.000593132 ++++++++++++++++++++++++to 0.000593132
Heightened Def Con from 0.000593132 ++++++++++++++++++++++++to 0.000593132
Heightened Def Con from 0.000593132 ++++++++++++++++++++++++to 0.000593132
Heightened Def Con from 0.000593132 ++++++++++++++++++++++++to 0.000593132
Heightened Def Con from 0.000593132 ++++++++++++++++++++++++to 0.000593132
Heightened Def Con from 0.000593132 ++++++++++++++++++++++++to 0.000593132
Heightened Def Con from 0.000593132 +++++++++++++++++++++++++to 0.000593133
Heightened Def Con from 0.000593133 ++++++++++++++++++++++++to 0.000593133
Heightened Def Con from 0.000593133 ++++++++++++++++++++++++to 0.000593133
Heightened Def Con from 0.000593133 ++++++++++++++++++++++++to 0.000593133
Heightened Def Con from 0.000593133 ++++++++++++++++++++++++to 0.000593133
Heightened Def Con from 0.000593133 ++++++++++++++++++++++++to 0.000593133
Heightened Def Con from 0.000593133 ++++++++++++++++++++++++to 0.000593133
Heightened Def Con from 0.000593133 ++++++++++++++++++++++++to 0.000593133
Heightened Def Con from 0.000593133 +++++++++++++++++++++++++to 0.000593134
Heightened Def Con from 0.000593134 +++++++++++++++++++++++++to 0.000593134
Heightened Def Con from 0.000593134 +++++++++++++++++++++++++to 0.000593134
Heightened Def Con from 0.000593134 +++++++++++++++++++++++++to 0.000593134
Heightened Def Con from 0.000593134 +++++++++++++++++++++++++to 0.000593134
Heightened Def Con from 0.000593134 +++++++++++++++++++++++++to 0.000593135
Heightened Def Con from 0.000593135 +++++++++++++++++++++++++to 0.000593135
Heightened Def Con from 0.000593135 +++++++++++++++++++++++++to 0.000593135
Heightened Def Con from 0.000593135 +++++++++++++++++++++++++to 0.000593135
Heightened Def Con from 0.000593135 +++++++++++++++++++++++++to 0.000593135
Heightened Def Con from 0.000593135 +++++++++++++++++++++++++to 0.000593135
Heightened Def Con from 0.000593135 +++++++++++++++++++++++++to 0.000593135
Heightened Def Con from 0.000593135 +++++++++++++++++++++++++to 0.000593135
Heightened Def Con from 0.000593135 +++++++++++++++++++++++++to 0.000593135
Heightened Def Con from 0.000593135 +++++++++++++++++++++++++to 0.000593135
[...]
Heightened Def Con from 0.000653323 +++++++++++++++++++++to 0.000653323
Heightened Def Con from 0.000653323 +++++++++++++++++++++to 0.000653323
Heightened Def Con from 0.000653323 +++++++++++++++++++++to 0.000653323
Heightened Def Con from 0.000653323 +++++++++++++++++++++to 0.000653323
Heightened Def Con from 0.000653323 +++++++++++++++++++++to 0.000653323
Heightened Def Con from 0.000653323 +++++++++++++++++++++to 0.000653323
Heightened Def Con from 0.000653323 ++++++++++++++++++++++to 0.000653323
Heightened Def Con from 0.000653323 to 0.000653323
Heightened Def Con from 0.000653323 to 0.000653323
Heightened Def Con from 0.000653323 to 0.000653323
Heightened Def Con from 0.000653323 +++++++++++++to 0.000653323
Heightened Def Con from 0.000653323 ++++++++++++++to 0.000653323
Heightened Def Con from 0.000653323 ++++++++++++++to 0.000653323
Heightened Def Con from 0.000653323 ++++++++++++++to 0.000653323
Heightened Def Con from 0.000653323 ++++++++++++++to 0.000653323
Heightened Def Con from 0.000653323 ++++++++++++++++to 0.000653323
Heightened Def Con from 0.000653323 ++++++++++++++++to 0.000653323
Heightened Def Con from 0.000653323 ++++++++++++++++to 0.000653323
Heightened Def Con from 0.000653323 +++++++++++++++++to 0.000653323
Heightened Def Con from 0.000653323 ++++++++++++++++++to 0.000653323
Heightened Def Con from 0.000653323 +++++++++++++++++++to 0.000653323
Heightened Def Con from 0.000653323 +++++++++++++++++++to 0.000653323
Heightened Def Con from 0.000653323 +++++++++++++++++++to 0.000653323
Heightened Def Con from 0.000653323 +++++++++++++++++++to 0.000653323
Heightened Def Con from 0.000653323 +++++++++++++++++++to 0.000653323
Heightened Def Con from 0.000653323 ++++++++++++++++++++to 0.000653323
Heightened Def Con from 0.000653323 ++++++++++++++++++++to 0.000653323
Heightened Def Con from 0.000653323 ++++++++++++++++++++to 0.000653323
Heightened Def Con from 0.000653323 ++++++++++++++++++++to 0.000653323
Heightened Def Con from 0.000653323 ++++++++++++++++++++to 0.000653323
Heightened Def Con from 0.000653323 ++++++++++++++++++++to 0.000653323
Heightened Def Con from 0.000653323 +++++++++++++++++++++to 0.000653323
Heightened Def Con from 0.000653323 +++++++++++++++++++++to 0.000653323
Heightened Def Con from 0.000653323 +++++++++++++++++++++to 0.000653323
Heightened Def Con from 0.000653323 +++++++++++++++++++++to 0.000653323
Heightened Def Con from 0.000653323 +++++++++++++++++++++to 0.000653323
Heightened Def Con from 0.000653323 +++++++++++++++++++++to 0.000653323
Heightened Def Con from 0.000653323 +++++++++++++++++++++to 0.000653323
Heightened Def Con from 0.000653323 ++++++++++++++++++++++to 0.000653323
Heightened Def Con from 0.000653323 ++++++++++++++++++++++to 0.000653323
Heightened Def Con from 0.000653323 ++++++++++++++++++++++to 0.000653323
Heightened Def Con from 0.000653323 ++++++++++++++++++++++to 0.000653323
Heightened Def Con from 0.000653323 ++++++++++++++++++++++to 0.000653323
Heightened Def Con from 0.000653323 ++++++++++++++++++++++to 0.000653323
Heightened Def Con from 0.000653323 ++++++++++++++++++++++to 0.000653323
Heightened Def Con from 0.000653323 ++++++++++++++++++++++to 0.000653323
Heightened Def Con from 0.000653323 ++++++++++++++++++++++to 0.000653323
Heightened Def Con from 0.000653323 ++++++++++++++++++++++to 0.000653323
Heightened Def Con from 0.000653323 ++++++++++++++++++++++to 0.000653323
Heightened Def Con from 0.000653323 ++++++++++++++++++++++to 0.000653323
Heightened Def Con from 0.000653323 ++++++++++++++++++++++to 0.000653323
Heightened Def Con from 0.000653323 ++++++++++++++++++++++to 0.000653323
Heightened Def Con from 0.000653323 ++++++++++++++++++++++to 0.000653323
Heightened Def Con from 0.000653323 ++++++++++++++++++++++to 0.000653323
Heightened Def Con from 0.000653323 ++++++++++++++++++++++to 0.000653323
Heightened Def Con from 0.000653323 +++++++++++++++++++++++to 0.000653323
Heightened Def Con from 0.000653323 to 0.000653323
Heightened Def Con from 0.000653323 +++++++++++++++to 0.000653323
Heightened Def Con from 0.000653323 ++++++++++++++++to 0.000653323
Heightened Def Con from 0.000653323 +++++++++++++++to 0.000653323
Heightened Def Con from 0.000653323 +++++++++++++++++++to 0.000653323
Heightened Def Con from 0.000653323 +++++++++++++++++++to 0.000653323
Heightened Def Con from 0.000653323 +++++++++++++++++++to 0.000653323
Heightened Def Con from 0.000653323 ++++++++++++++++++++to 0.000653323
Heightened Def Con from 0.000653323 +++++++++++++++++++++to 0.000653323
Heightened Def Con from 0.000653323 +++++++++++++++++++++to 0.000653323
Heightened Def Con from 0.000653323 +++++++++++++++++++++to 0.000653323
Heightened Def Con from 0.000653323 +++++++++++++++++++++to 0.000653323
Heightened Def Con from 0.000653323 +++++++++++++++++++++to 0.000653323
Heightened Def Con from 0.000653323 ++++++++++++++++++++++to 0.000653323
Heightened Def Con from 0.000653323 ++++++++++++++++++++++to 0.000653323
Heightened Def Con from 0.000653323 ++++++++++++++++++++++to 0.000653323
Heightened Def Con from 0.000653323 ++++++++++++++++++++++to 0.000653323
Heightened Def Con from 0.000653323 +++++++++++++++++++++++to 0.000653323
Heightened Def Con from 0.000653323 +++++++++++++++++++++++to 0.000653323
Heightened Def Con from 0.000653323 +++++++++++++++++++++++to 0.000653323
Heightened Def Con from 0.000653323 +++++++++++++++++++++++to 0.000653323
Heightened Def Con from 0.000653323 +++++++++++++++++++++++to 0.000653323
Heightened Def Con from 0.000653323 +++++++++++++++++++++++to 0.000653323
Heightened Def Con from 0.000653323 +++++++++++++++++++++++to 0.000653323
Heightened Def Con from 0.000653323 +++++++++++++++++++++++to 0.000653323
Heightened Def Con from 0.000653323 +++++++++++++++++++++++to 0.000653323
Heightened Def Con from 0.000653323 +++++++++++++++++++++++to 0.000653323
Heightened Def Con from 0.000653323 +++++++++++++++++++++++to 0.000653323
Heightened Def Con from 0.000653323 +++++++++++++++++++++++to 0.000653323
Heightened Def Con from 0.000653323 +++++++++++++++++++++++to 0.000653323
Heightened Def Con from 0.000653323 +++++++++++++++++++++++to 0.000653323
Heightened Def Con from 0.000653323 +++++++++++++++++++++++to 0.000653323
Heightened Def Con from 0.000653323 +++++++++++++++++++++++to 0.000653323
Heightened Def Con from 0.000653323 +++++++++++++++++++++++to 0.000653323
Heightened Def Con from 0.000653323 +++++++++++++++++++++++to 0.000653323
Heightened Def Con from 0.000653323 +++++++++++++++++++++++to 0.000653323
Heightened Def Con from 0.000653323 +++++++++++++++++++++++to 0.000653323
Heightened Def Con from 0.000653323 +++++++++++++++++++++++to 0.000653323
Heightened Def Con from 0.000653323 ++++++++++++++++++++++++to 0.000653323
Heightened Def Con from 0.000653323 to 0.000653323
Heightened Def Con from 0.000653323 to 0.000653323
Heightened Def Con from 0.000653323 +++to 0.000653323
Heightened Def Con from 0.000653323 ++++++++to 0.000653323
Heightened Def Con from 0.000653323 +to 0.000653323
Heightened Def Con from 0.000653323 to 0.000653323
Heightened Def Con from 0.000653323 to 0.000653323
Heightened Def Con from 0.000653323 to 0.000653323
Heightened Def Con from 0.000653323 ++++++++++to 0.000653323
Heightened Def Con from 0.000653323 +to 0.000653323
Heightened Def Con from 0.000653323 to 0.000653323
Heightened Def Con from 0.000653323 ++++++++++++++to 0.000653323
Heightened Def Con from 0.000653323 to 0.000653323
Heightened Def Con from 0.000653323 +to 0.000653323
Heightened Def Con from 0.000653323 ++++++to 0.000653323
Heightened Def Con from 0.000653323 ++++++++++++++to 0.000653323
Heightened Def Con from 0.000653323 +++++++++++++++++to 0.000653323
Heightened Def Con from 0.000653323 +++++++++++++++++to 0.000653323
Heightened Def Con from 0.000653323 +++++++++++++++++to 0.000653323
Heightened Def Con from 0.000653323 +++++++++++++++++to 0.000653323
Heightened Def Con from 0.000653323 ++++++++++++++++++to 0.000653323
Heightened Def Con from 0.000653323 ++++++++++++++++++++to 0.000653323
Heightened Def Con from 0.000653323 ++++++++++++++++++++to 0.000653323
Heightened Def Con from 0.000653323 +++++++++++++++++++++to 0.000653323
Heightened Def Con from 0.000653323 ++++++++++++++++++++++to 0.000653323
Heightened Def Con from 0.000653323 ++++++++++++++++++++++to 0.000653323
Heightened Def Con from 0.000653323 ++++++++++++++++++++++to 0.000653323
Heightened Def Con from 0.000653323 ++++++++++++++++++++++to 0.000653323
Heightened Def Con from 0.000653323 ++++++++++++++++++++++to 0.000653323
Heightened Def Con from 0.000653323 +++++++++++++++++++++++to 0.000653323
Heightened Def Con from 0.000653323 +++++++++++++++++++++++to 0.000653323
Heightened Def Con from 0.000653323 +++++++++++++++++++++++to 0.000653323
Heightened Def Con from 0.000653323 +++++++++++++++++++++++to 0.000653323
Heightened Def Con from 0.000653323 +++++++++++++++++++++++to 0.000653323
Heightened Def Con from 0.000653323 ++++++++++++++++++++++++to 0.000653323
Heightened Def Con from 0.000653323 +++++++++++++++++++++++to 0.000653323
Heightened Def Con from 0.000653323 +++++++++++++++++++++++to 0.000653323
Heightened Def Con from 0.000653323 ++++++++++++++++++++++++to 0.000653323
Heightened Def Con from 0.000653323 ++++++++++++++++++++++++to 0.000653323
Heightened Def Con from 0.000653323 ++++++++++++++++++++++++to 0.000653323
Heightened Def Con from 0.000653323 ++++++++++++++++++++++++to 0.000653323
Heightened Def Con from 0.000653323 ++++++++++++++++++++++++to 0.000653323
Heightened Def Con from 0.000653323 ++++++++++++++++++++++++to 0.000653323
Heightened Def Con from 0.000653323 ++++++++++++++++++++++++to 0.000653323
Heightened Def Con from 0.000653323 ++++++++++++++++++++++++to 0.000653323
Heightened Def Con from 0.000653323 ++++++++++++++++++++++++to 0.000653323
Heightened Def Con from 0.000653323 ++++++++++++++++++++++++to 0.000653323
Heightened Def Con from 0.000653323 +++++++++++++++++++++++++to 0.000653323
Heightened Def Con from 0.000653323 to 0.000653323
Heightened Def Con from 0.000653323 to 0.000653323
Heightened Def Con from 0.000653323 to 0.000653323
Heightened Def Con from 0.000653323 to 0.000653323
Heightened Def Con from 0.000653323 to 0.000653323
Heightened Def Con from 0.000653323 +++++to 0.000653323
Heightened Def Con from 0.000653323 to 0.000653323
Heightened Def Con from 0.000653323 ++++++++++++++++++++to 0.000653323
Heightened Def Con from 0.000653323 +to 0.000653323
Heightened Def Con from 0.000653323 ++++++++++++++to 0.000653323
Heightened Def Con from 0.000653323 +++++++++++++++++to 0.000653323
Heightened Def Con from 0.000653323 to 0.000653323
Heightened Def Con from 0.000653323 ++++++++++++++to 0.000653323
Heightened Def Con from 0.000653323 ++++++++++++++++++to 0.000653323
Heightened Def Con from 0.000653323 +++++++++++++++to 0.000653323
Heightened Def Con from 0.000653323 +++++++++++++++to 0.000653323
Heightened Def Con from 0.000653323 +++++++++++++++++to 0.000653323
Heightened Def Con from 0.000653323 ++++++++++++++++++to 0.000653323
Heightened Def Con from 0.000653323 +++++++++++++++++++to 0.000653323
Heightened Def Con from 0.000653323 ++++++++++++++++++to 0.000653323
Heightened Def Con from 0.000653323 ++++++++++++++++++to 0.000653323
Heightened Def Con from 0.000653323 ++++++++++++++++++++to 0.000653323
Heightened Def Con from 0.000653323 +++++++++++++++++++to 0.000653323
Heightened Def Con from 0.000653323 +++++++++++++++++++to 0.000653323
Heightened Def Con from 0.000653323 +++++++++++++++++++to 0.000653323
Heightened Def Con from 0.000653323 +++++++++++++++++++++to 0.000653323
Heightened Def Con from 0.000653323 ++++++++++++++++++++++to 0.000653323
Heightened Def Con from 0.000653323 ++++++++++++++++++++++to 0.000653323
Heightened Def Con from 0.000653323 ++++++++++++++++++++++to 0.000653323
Heightened Def Con from 0.000653323 ++++++++++++++++++++++to 0.000653323
Heightened Def Con from 0.000653323 ++++++++++++++++++++++to 0.000653323
Heightened Def Con from 0.000653323 ++++++++++++++++++++++to 0.000653323
Heightened Def Con from 0.000653323 +++++++++++++++++++++++to 0.000653323
Heightened Def Con from 0.000653323 +++++++++++++++++++++++to 0.000653323
Heightened Def Con from 0.000653323 +++++++++++++++++++++++to 0.000653323
Heightened Def Con from 0.000653323 +++++++++++++++++++++++to 0.000653323
Heightened Def Con from 0.000653323 +++++++++++++++++++++++to 0.000653323
Heightened Def Con from 0.000653323 +++++++++++++++++++++++to 0.000653323
Heightened Def Con from 0.000653323 +++++++++++++++++++++++to 0.000653323
Heightened Def Con from 0.000653323 +++++++++++++++++++++++to 0.000653323
Heightened Def Con from 0.000653323 +++++++++++++++++++++++to 0.000653323
Heightened Def Con from 0.000653323 ++++++++++++++++++++++++to 0.000653323
Heightened Def Con from 0.000653323 ++++++++++++++++++++++++to 0.000653323
Heightened Def Con from 0.000653323 ++++++++++++++++++++++++to 0.000653323
Heightened Def Con from 0.000653323 +++++++++++++++++++++++++to 0.000653323
Heightened Def Con from 0.000653323 +++++++++++++++++++++++to 0.000653323
Heightened Def Con from 0.000653323 +++++++++++++++++++++++to 0.000653323
Heightened Def Con from 0.000653323 ++++++++++++++++++++++++to 0.000653323
Heightened Def Con from 0.000653323 +++++++++++++++++++++++++to 0.000653323
Heightened Def Con from 0.000653323 +++++++++++++++++++++++++to 0.000653323
Heightened Def Con from 0.000653323 +++++++++++++++++++++++++to 0.000653323
Heightened Def Con from 0.000653323 +++++++++++++++++++++++++to 0.000653323
Heightened Def Con from 0.000653323 +++++++++++++++++++++++++to 0.000653323
Heightened Def Con from 0.000653323 +++++++++++++++++++++++++to 0.000653323
Heightened Def Con from 0.000653323 +++++++++++++++++++++++++to 0.000653323
Heightened Def Con from 0.000653323 +++++++++++++++++++++++++to 0.000653323
Heightened Def Con from 0.000653323 ++++++++++++++++++++++++++to 0.000653323
Heightened Def Con from 0.000653323 to 0.000653323
Heightened Def Con from 0.000653323 ++to 0.000653323
Heightened Def Con from 0.000653323 ++++++to 0.000653323
Heightened Def Con from 0.000653323 ++++++++++++++++++to 0.000653323
Heightened Def Con from 0.000653323 ++++++++++++++++++to 0.000653323
Heightened Def Con from 0.000653323 to 0.000653323
Heightened Def Con from 0.000653323 ++++++++++++++++++to 0.000653323
Heightened Def Con from 0.000653323 +++++++++++++++++++++++to 0.000653323
Heightened Def Con from 0.000653323 +++++++++++++++++++++++to 0.000653323
Heightened Def Con from 0.000653323 ++++++++++++++++++++++to 0.000653323
Heightened Def Con from 0.000653323 ++++++++++++++++++++++to 0.000653323
Heightened Def Con from 0.000653323 +++++++++++++++++++++++to 0.000653323
Heightened Def Con from 0.000653323 +++++++++++++++++++++++to 0.000653323
Heightened Def Con from 0.000653323 ++++++++++++++++++++++++to 0.000653323
Heightened Def Con from 0.000653323 ++++++++++++++++++++++++to 0.000653323
Heightened Def Con from 0.000653323 ++++++++++++++++++++++++to 0.000653323
Heightened Def Con from 0.000653323 ++++++++++++++++++++++++to 0.000653323
Heightened Def Con from 0.000653323 ++++++++++++++++++++++++to 0.000653323
Heightened Def Con from 0.000653323 ++++++++++++++++++++++++to 0.000653323
Heightened Def Con from 0.000653323 ++++++++++++++++++++++++to 0.000653323
Heightened Def Con from 0.000653323 ++++++++++++++++++++++++to 0.000653323
Heightened Def Con from 0.000653323 +++++++++++++++++++++++++to 0.000653323
Heightened Def Con from 0.000653323 +++++++++++++++++++++++++to 0.000653323
Heightened Def Con from 0.000653323 +++++++++++++++++++++++++to 0.000653323
Heightened Def Con from 0.000653323 +++++++++++++++++++++++++to 0.000653323
Heightened Def Con from 0.000653323 +++++++++++++++++++++++++to 0.000653323
Heightened Def Con from 0.000653323 ++++++++++++++++++++++++++to 0.000653323
Heightened Def Con from 0.000653323 ++++++++++++++++++++++++to 0.000653323
Heightened Def Con from 0.000653323 +++++++++++++++++++++++++to 0.000653323
Heightened Def Con from 0.000653323 ++++++++++++++++++++++++++to 0.000653323
Heightened Def Con from 0.000653323 +++++++++++++++++++++++++to 0.000653323
Heightened Def Con from 0.000653323 +++++++++++++++++++++++++to 0.000653323
Heightened Def Con from 0.000653323 +++++++++++++++++++++++++to 0.000653323
Heightened Def Con from 0.000653323 ++++++++++++++++++++++++++to 0.000653323
Heightened Def Con from 0.000653323 +++++++++++++++++++++++++to 0.000653323
Heightened Def Con from 0.000653323 +++++++++++++++++++++++++to 0.000653323
Heightened Def Con from 0.000653323 +++++++++++++++++++++++++to 0.000653323
Heightened Def Con from 0.000653323 ++++++++++++++++++++++++++to 0.000653323
Heightened Def Con from 0.000653323 ++++++++++++++++++++++++++to 0.000653323
Heightened Def Con from 0.000653323 ++++++++++++++++++++++++++to 0.000653323
Heightened Def Con from 0.000653323 ++++++++++++++++++++++++++to 0.000653323
Heightened Def Con from 0.000653323 ++++++++++++++++++++++++++to 0.000653323
Heightened Def Con from 0.000653323 ++++++++++++++++++++++++++to 0.000653323
Heightened Def Con from 0.000653323 ++++++++++++++++++++++++++to 0.000653323
Heightened Def Con from 0.000653323 ++++++++++++++++++++++++++to 0.000653323
Heightened Def Con from 0.000653323 ++++++++++++++++++++++++++to 0.000653323
Heightened Def Con from 0.000653323 ++++++++++++++++++++++++++to 0.000653323
Heightened Def Con from 0.000653323 ++++++++++++++++++++++++++to 0.000653323
Heightened Def Con from 0.000653323 ++++++++++++++++++++++++++to 0.000653323
Heightened Def Con from 0.000653323 ++++++++++++++++++++++++++to 0.000653323
Heightened Def Con from 0.000653323 ++++++++++++++++++++++++++to 0.000653323
Heightened Def Con from 0.000653323 ++++++++++++++++++++++++++to 0.000653323
Heightened Def Con from 0.000653323 ++++++++++++++++++++++++++to 0.000653323
Heightened Def Con from 0.000653323 +++++++++++++++++++++++++++to 0.000653323
Heightened Def Con from 0.000653323 to 0.000653331
Heightened Def Con from 0.00066442 to 0.000664422
Heightened Def Con from 0.00067541 to 0.000675415
Heightened Def Con from 0.000686528 to 0.000686528
Heightened Def Con from 0.000686528 ++++++++++++++++++++to 0.000686528
Heightened Def Con from 0.000686528 ++++++++++++++++++++to 0.000686528
Heightened Def Con from 0.000686528 ++++++++++++++++++++++to 0.000686529
Heightened Def Con from 0.000697517 to 0.000697522
Heightened Def Con from 0.000708639 to 0.000708643
Heightened Def Con from 0.000719626 to 0.000719631
Heightened Def Con from 0.000730747 to 0.000730751
Heightened Def Con from 0.000741739 to 0.000741744
Heightened Def Con from 0.000752865 to 0.00075287
Heightened Def Con from 0.000763841 to 0.000763846
Heightened Def Con from 0.00077497 to 0.000774975
Heightened Def Con from 0.000785946 to 0.000785951
Heightened Def Con from 0.000797075 to 0.00079708
Heightened Def Con from 0.000808051 to 0.000808056
Heightened Def Con from 0.000819185 to 0.00081919
Heightened Def Con from 0.000830164 to 0.000830169
Heightened Def Con from 0.000841298 to 0.000841302
Heightened Def Con from 0.000852268 to 0.000852271
Heightened Def Con from 0.000863405 to 0.000863411
Heightened Def Con from 0.000874372 to 0.000874375
Heightened Def Con from 0.000885509 to 0.00088552
Heightened Def Con from 0.000896477 to 0.000896482
Heightened Def Con from 0.000896494 to 0.000896498
Heightened Def Con from 0.000907613 to 0.000907616
Heightened Def Con from 0.000918581 to 0.000918584
Heightened Def Con from 0.000918588 to 0.000918591
Heightened Def Con from 0.000940702 to 0.000940705
Heightened Def Con from 0.00572866 to 0.00572867

Date: Thu Oct 23 23:36:04 2025
Total elapsed time: 281.923 seconds.

tnom = 27
temp = 27
method = trap
totiter = 30337118
traniter = 30335021
tranpoints = 2979481
accept = 469853
rejected = 2749754
matrix size = 183
fillins = 111
solver = Normal
Thread vector: 12.1/4.1[7] 1.4/1.2[3] 4.6/1.5[7] 0.3/0.5[1]  2592/500
Matrix Compiler1: 20.25 KB object code size  2.5/0.9/[0.9]
Matrix Compiler2: 17.21 KB object code size  0.8/1.0/[0.6]

