Circuit: * C:\users\ostoja\Desktop\Elektronika\diff_sonde\DS100M08KV2\simulacije\charge_pump\H-bridge_charge_pump_negative_jlc.asc

Instance "m:u4:2": Length shorter than recommended for a level 3 MOSFET.
Instance "m:u3:2": Length shorter than recommended for a level 3 MOSFET.
Instance "m:u2:2": Length shorter than recommended for a level 3 MOSFET.
Instance "m:u1:2": Length shorter than recommended for a level 3 MOSFET.
Direct Newton iteration for .op point succeeded.
.step vbat=3
Heightened Def Con from 3.75065e-005 to 3.75101e-005
.step vbat=3.5
.step vbat=3.7
.step vbat=4.2

Date: Thu Oct 23 23:00:39 2025
Total elapsed time: 12.959 seconds.

tnom = 27
temp = 27
method = trap
totiter = 502880
traniter = 502861
tranpoints = 216925
accept = 155308
rejected = 61617
matrix size = 64
fillins = 24
solver = Normal
Matrix Compiler1: 8.48 KB object code size  1.2/0.7/[0.5]
Matrix Compiler2: 6.57 KB object code size  0.5/0.7/[0.4]

