Circuit: * C:\users\ostoja\Desktop\Elektronika\diff_sonde\DS100M08KV2\simulacije\charge_pump\H-bridge_charge_pump_negative.asc

Direct Newton iteration for .op point succeeded.
Changing Tseed to 9.76562e-010

Date: Thu Oct 23 20:26:45 2025
Total elapsed time: 1.267 seconds.

tnom = 27
temp = 27
method = trap
totiter = 411298
traniter = 411277
tranpoints = 131627
accept = 102709
rejected = 28917
matrix size = 36
fillins = 52
solver = Normal
Matrix Compiler1: 5.83 KB object code size  0.8/0.4/[0.3]
Matrix Compiler2: 4.07 KB object code size  0.3/0.3/[0.3]

