Circuit: * C:\users\ostoja\Desktop\Elektronika\diff_sonde\DS100M08KV2\simulacije\charge_pump\H-bridge_charge_pump_positive.asc

Direct Newton iteration for .op point succeeded.

Date: Thu Oct 23 20:02:06 2025
Total elapsed time: 2.462 seconds.

tnom = 27
temp = 27
method = trap
totiter = 833609
traniter = 833591
tranpoints = 266884
accept = 208489
rejected = 58395
matrix size = 36
fillins = 50
solver = Normal
Matrix Compiler1: 5.75 KB object code size  0.7/0.3/[0.3]
Matrix Compiler2: 4.03 KB object code size  0.2/0.3/[0.2]

