Circuit: * C:\users\ostoja\Desktop\Elektronika\diff_sonde\DS100M08KV2\simulacije\charge_pump\H-bridge_charge_pump.asc

WARNING: Less than two connections to node NC_01.  This node is used by V8.
Direct Newton iteration for .op point succeeded.

Date: Thu Oct 23 19:03:09 2025
Total elapsed time: 0.925 seconds.

tnom = 27
temp = 27
method = trap
totiter = 443072
traniter = 443040
tranpoints = 140976
accept = 111378
rejected = 29598
matrix size = 27
fillins = 15
solver = Normal
Matrix Compiler1: 2.31 KB object code size  0.4/0.2/[0.2]
Matrix Compiler2: 2.32 KB object code size  0.2/0.2/[0.2]

