Circuit: * HCMOS Subcircuit and Primitive Elements Library

Fatal Error: No analysis request found.
