Circuit: * C:\users\ostoja\Desktop\Elektronika\diff_sonde\DS100M08KV2\simulacije\charge_pump\improved_gate_driver_v2.asc

WARNING: Less than two connections to node LOSSES.  This node is used by B3.
WARNING: Less than two connections to node EFFICIENCY.  This node is used by B4.
WARNING: Less than two connections to node U1:U1:UA:TEST.  This node is used by E:U1:U1:UA:TEST.
WARNING: Less than two connections to node U1:U1:UA:VTH_DIFF.  This node is used by E:U1:U1:UA:VTHDIFF.
WARNING: Less than two connections to node U1:U1:UB:TEST.  This node is used by E:U1:U1:UB:TEST.
WARNING: Less than two connections to node U1:U1:UB:VTH_DIFF.  This node is used by E:U1:U1:UB:VTHDIFF.
WARNING: Less than two connections to node U2:U1:UA:TEST.  This node is used by E:U2:U1:UA:TEST.
WARNING: Less than two connections to node U2:U1:UA:VTH_DIFF.  This node is used by E:U2:U1:UA:VTHDIFF.
WARNING: Less than two connections to node U2:U1:UB:TEST.  This node is used by E:U2:U1:UB:TEST.
WARNING: Less than two connections to node U2:U1:UB:VTH_DIFF.  This node is used by E:U2:U1:UB:VTHDIFF.
Direct Newton iteration for .op point succeeded.
Heightened Def Con from 0.00010517 to 0.00010517

Date: Sat Oct 25 14:27:20 2025
Total elapsed time: 1.953 seconds.

tnom = 27
temp = 27
method = trap
totiter = 51670
traniter = 51651
tranpoints = 14578
accept = 10683
rejected = 3896
matrix size = 292
fillins = 62
solver = Normal
Thread vector: 27.2/7.5[15] 1.6/2.9[1] 8.6/3.5[15] 0.3/2.3[1]  2592/500
Matrix Compiler1:     653 opcodes  2.6/1.0/[1.0]
Matrix Compiler2:    1603 opcodes
