Circuit: * C:\users\ostoja\Desktop\Elektronika\diff_sonde\DS100M08KV2\simulacije\charge_pump\improved_gate_driver.asc

Direct Newton iteration for .op point succeeded.

Date: Sat Oct 25 13:52:37 2025
Total elapsed time: 1.313 seconds.

tnom = 27
temp = 27
method = trap
totiter = 326059
traniter = 326040
tranpoints = 97463
accept = 74753
rejected = 22710
matrix size = 57
fillins = 44
solver = Normal
Matrix Compiler1: 5.51 KB object code size  0.7/0.3/[0.3]
Matrix Compiler2: 5.29 KB object code size  0.3/0.4/[0.3]

