Circuit: * C:\users\ostoja\Desktop\Elektronika\diff_sonde\DS100M08KV2\simulacije\charge_pump\oscilator.asc

Direct Newton iteration for .op point succeeded.

Date: Thu Oct 23 20:15:29 2025
Total elapsed time: 0.768 seconds.

tnom = 27
temp = 27
method = trap
totiter = 401885
traniter = 401853
tranpoints = 83849
accept = 61301
rejected = 22548
matrix size = 17
fillins = 21
solver = Normal
Matrix Compiler1: 1.79 KB object code size  0.3/0.2/[0.2]
Matrix Compiler2: off  [0.2]/0.2/0.2

