Circuit: * C:\users\ostoja\Desktop\Elektronika\diff_sonde\DS100M08KV2\simulacije\charge_pump\pmos_nmos.asc

WARNING: Less than two connections to node SOURCE.  This node is used by V7.
WARNING: Less than two connections to node INPUT.  This node is used by V9.
WARNING: Less than two connections to node INIT.  This node is used by V3.
WARNING: Less than two connections to node U1:U1:UA:TEST.  This node is used by E:U1:U1:UA:TEST.
WARNING: Less than two connections to node U1:U1:UA:VTH_DIFF.  This node is used by E:U1:U1:UA:VTHDIFF.
WARNING: Less than two connections to node U1:U1:UB:TEST.  This node is used by E:U1:U1:UB:TEST.
WARNING: Less than two connections to node U1:U1:UB:VTH_DIFF.  This node is used by E:U1:U1:UB:VTHDIFF.
WARNING: Less than two connections to node U2:U1:UA:TEST.  This node is used by E:U2:U1:UA:TEST.
WARNING: Less than two connections to node U2:U1:UA:VTH_DIFF.  This node is used by E:U2:U1:UA:VTHDIFF.
WARNING: Less than two connections to node U2:U1:UB:TEST.  This node is used by E:U2:U1:UB:TEST.
WARNING: Less than two connections to node U2:U1:UB:VTH_DIFF.  This node is used by E:U2:U1:UB:VTHDIFF.
WARNING: Less than two connections to node U3:U1:UA:TEST.  This node is used by E:U3:U1:UA:TEST.
WARNING: Less than two connections to node U3:U1:UA:VTH_DIFF.  This node is used by E:U3:U1:UA:VTHDIFF.
WARNING: Less than two connections to node U3:U1:UB:TEST.  This node is used by E:U3:U1:UB:TEST.
WARNING: Less than two connections to node U3:U1:UB:VTH_DIFF.  This node is used by E:U3:U1:UB:VTHDIFF.
WARNING: Less than two connections to node U4:U1:UA:TEST.  This node is used by E:U4:U1:UA:TEST.
WARNING: Less than two connections to node U4:U1:UA:VTH_DIFF.  This node is used by E:U4:U1:UA:VTHDIFF.
WARNING: Less than two connections to node U4:U1:UB:TEST.  This node is used by E:U4:U1:UB:TEST.
WARNING: Less than two connections to node U4:U1:UB:VTH_DIFF.  This node is used by E:U4:U1:UB:VTHDIFF.
WARNING: Less than two connections to node U5:U1:UA:TEST.  This node is used by E:U5:U1:UA:TEST.
WARNING: Less than two connections to node U5:U1:UA:VTH_DIFF.  This node is used by E:U5:U1:UA:VTHDIFF.
WARNING: Less than two connections to node U5:U1:UB:TEST.  This node is used by E:U5:U1:UB:TEST.
WARNING: Less than two connections to node U5:U1:UB:VTH_DIFF.  This node is used by E:U5:U1:UB:VTHDIFF.
WARNING: Less than two connections to node U6:U1:UA:TEST.  This node is used by E:U6:U1:UA:TEST.
WARNING: Less than two connections to node U6:U1:UA:VTH_DIFF.  This node is used by E:U6:U1:UA:VTHDIFF.
WARNING: Less than two connections to node U6:U1:UB:TEST.  This node is used by E:U6:U1:UB:TEST.
WARNING: Less than two connections to node U6:U1:UB:VTH_DIFF.  This node is used by E:U6:U1:UB:VTHDIFF.
WARNING: Less than two connections to node NC_01.  This node is used by V8.
Direct Newton iteration for .op point succeeded.
Changing Tseed to 1.95313e-010
Heightened Def Con from 1.00211e-008 to 1.02711e-008
Heightened Def Con from 1.42495e-008 to 1.62495e-008
Heightened Def Con from 1.00101e-005 to 1.00101e-005
Heightened Def Con from 1.00101e-005 to 1.00121e-005
Heightened Def Con from 5e-005 to 5.00101e-005
Heightened Def Con from 0.000149986 to 0.000149988
Heightened Def Con from 0.000249221 to 0.000249223

Date: Thu Oct 23 19:00:08 2025
Total elapsed time: 4.943 seconds.

tnom = 27
temp = 27
method = trap
totiter = 28734
traniter = 28702
tranpoints = 8648
accept = 6599
rejected = 2055
matrix size = 777
fillins = 162
solver = Normal
Thread vector: 75.9/30.5[16] 2.5/5.0[1] 30.9/9.7[14] 0.8/33.6[1]  2592/500
Matrix Compiler1: 22.88 KB object code size  6.1/2.6/[1.4]
Matrix Compiler2: 48.36 KB object code size  4.3/5.2/[2.2]

