Circuit: * Z:\home\ostoja\Elektronika\DS100M08KV2\simulacije\charge_pump\tl431.asc

Limiting rise time of source v8 to 2e-006
Limiting fall time of source v8 to 2e-006
Limiting rise time of source v10 to 2e-006
Limiting fall time of source v10 to 2e-006
Instance "m:u2:2": Length shorter than recommended for a level 3 MOSFET.
Instance "m:u1:2": Length shorter than recommended for a level 3 MOSFET.
Direct Newton iteration failed to find .op point.  (Use ".option noopiter" to skip.)
Starting Gmin stepping
Gmin = 10
Gmin = 1.07374
Gmin = 0.115292
Gmin = 0.0123794
Gmin = 0.00132923
Gmin = 0.000142725
Gmin = 1.5325e-005
Gmin = 1.6455e-006
Gmin = 1.76685e-007
Gmin = 1.89714e-008
Gmin = 2.03704e-009
Gmin = 2.18725e-010
Gmin = 2.34854e-011
Gmin = 2.52173e-012
Gmin = 2.70769e-013
Gmin = 0
Gmin stepping succeeded in finding the operating point.

.step vbat=3.5
Heightened Def Con from 2e-006 +to 2e-006
Heightened Def Con from 2e-006 to 2.0002e-006
.step vbat=3.9
.step vbat=4.2

Date: Mon Oct 27 21:44:36 2025
Total elapsed time: 1.519 seconds.

tnom = 27
temp = 27
method = modified trap
totiter = 22926
traniter = 22345
tranpoints = 11173
accept = 8858
rejected = 2315
matrix size = 136
fillins = 104
solver = Normal
Matrix Compiler1: 17.62 KB object code size  1.9/1.0/[0.7]
Matrix Compiler2: 13.69 KB object code size  0.9/1.7/[0.7]

