Circuit: * Z:\home\ostoja\Elektronika\DS100M08KV2\simulacije\charge_pump\vbe_multiplier.asc

WARNING: Less than two connections to node N033.  This node is used by R29.
Instance "m:u2:2": Length shorter than recommended for a level 3 MOSFET.
Instance "m:u1:2": Length shorter than recommended for a level 3 MOSFET.
Direct Newton iteration for .op point succeeded.
.step vbat=3.5
.step vbat=3.9
.step vbat=4.2

Date: Mon Oct 27 20:57:22 2025
Total elapsed time: 0.381 seconds.

tnom = 27
temp = 27
method = modified trap
totiter = 2117
traniter = 2082
tranpoints = 1042
accept = 1042
rejected = 0
matrix size = 90
fillins = 36
solver = Normal
Matrix Compiler1:     512 opcodes  1.0/[0.6]/0.7
Matrix Compiler2: off  [0.4]/1.4/0.7

