Circuit: * C:\users\ostoja\Desktop\Elektronika\diff_sonde\DS100M08KV2\simulacije\charge_pump\vbe_multiplier.asc

Direct Newton iteration for .op point succeeded.
.step vbat=3
.step vbat=3.3
.step vbat=3.6
.step vbat=3.9
.step vbat=4.2

Date: Thu Oct 23 23:04:06 2025
Total elapsed time: 0.251 seconds.

tnom = 27
temp = 27
method = trap
totiter = 2094
traniter = 2082
tranpoints = 1042
accept = 1042
rejected = 0
matrix size = 24
fillins = 14
solver = Normal
Matrix Compiler1:     151 opcodes  0.4/[0.2]/0.2
Matrix Compiler2:     176 opcodes  0.2/[0.2]/0.2

