Circuit: * E:\Elektronika\diff_probe\DS100M08KV2\simulacije\charge_pump\vbe_multiplier.asc

Instance "m:u2:2": Length shorter than recommended for a level 3 MOSFET.
Instance "m:u1:2": Length shorter than recommended for a level 3 MOSFET.
Direct Newton iteration for .op point succeeded.
.step vbat=3.5
.step vbat=3.9
.step vbat=4.2

Date: Thu Oct 23 23:54:32 2025
Total elapsed time: 0.233 seconds.

tnom = 27
temp = 27
method = trap
totiter = 2117
traniter = 2082
tranpoints = 1042
accept = 1042
rejected = 0
matrix size = 71
fillins = 23
solver = Normal
Matrix Compiler1:     405 opcodes  0.7/[0.3]/0.4
Matrix Compiler2: off  [0.3]/0.6/0.3

