Circuit: * C:\users\ostoja\Desktop\Elektronika\diff_sonde\DS100M08KV2\simulacije\two_opamp\dc_analysis.asc

WARNING: Node N002 is floating.
WARNING: Node N003 is floating.
WARNING: Node N004 is floating.
WARNING: Node N027 is floating.
WARNING: Node N028 is floating.
WARNING: Node N029 is floating.

WARNING: Less than two connections to node 2.5V.  This node is used by V1.
WARNING: Less than two connections to node -2.5V.  This node is used by V2.
WARNING: Less than two connections to node 9V.  This node is used by V4.
WARNING: Less than two connections to node -9V.  This node is used by V6.
Direct Newton iteration failed to find .op point.  (Use ".option noopiter" to skip.)
Starting Gmin stepping
Gmin = 10
vernier = 0.5
Gmin = 1.86414
vernier = 0.25
vernier = 0.125
vernier = 0.0625
vernier = 0.03125
Gmin = 1.98679
vernier = 0.015625
vernier = 0.0078125
Gmin = 1.95985
vernier = 0.0104167
vernier = 0.0138889
Gmin = 1.90294
vernier = 0.0185185
vernier = 0.0246913
Gmin = 1.81565
vernier = 0.0329218
Gmin = 1.68649
vernier = 0.0438957
vernier = 0.0585276
Gmin = 1.49042
vernier = 0.0780367
vernier = 0.104049
Gmin = 1.22473
vernier = 0.138732
vernier = 0.0693659
vernier = 0.034683
Gmin = 1.077
vernier = 0.0173415
vernier = 0.00867074
Gmin = 1.04491
vernier = 0.011561
vernier = 0.00578049
vernier = 0.00289025
Gmin = 1.03365
vernier = 0.00385366
vernier = 0.00192683
Gmin = 1.02794
vernier = 0.00256911
vernier = 0.00128455
Gmin = 1.02416
vernier = 0.00171274
vernier = 0.000856369
Gmin = 1.02131
vernier = 0.00114182
vernier = 0.000570912
Gmin = 1.0192
vernier = 0.000761216
Gmin = 1.0175
vernier = 0.00101495
vernier = 0.000507477
vernier = 0.000676636
Gmin = 1.01632
vernier = 0.000507477
vernier = 0.000676636
Gmin = 1.01516
vernier = 0.000507477
vernier = 0.000676636
vernier = 0.000507477
Gmin = 1.01443
Gmin = 0
Gmin stepping failed

Starting source stepping with srcstepmethod=0
Source Step = 3.0303%
Source Step = 33.3333%
Source Step = 63.6364%
Source Step = 93.9394%
Source stepping succeeded in finding the operating point.


Date: Sat Oct 25 20:17:09 2025
Total elapsed time: 10.128 seconds.

tnom = 27
temp = 27
method = trap
totiter = 775738
traniter = 766577
tranpoints = 330412
accept = 225526
rejected = 104886
matrix size = 288
fillins = 466
solver = Normal
Matrix Compiler1: 35.07 KB object code size  5.1/1.8/[1.5]
Matrix Compiler2: 28.82 KB object code size  1.5/2.0/[1.0]

