Circuit: * C:\users\ostoja\Desktop\Elektronika\diff_sonde\DS100M08KV2\simulacije\two_opamp\input_capacitance_trimming.asc

WARNING: Node N002 is floating.
WARNING: Node N003 is floating.
WARNING: Node N004 is floating.
WARNING: Node N026 is floating.
WARNING: Node N027 is floating.
WARNING: Node N028 is floating.

WARNING: Less than two connections to node 2.5V.  This node is used by V1.
WARNING: Less than two connections to node -2.5V.  This node is used by V2.
WARNING: Less than two connections to node 9V.  This node is used by V4.
WARNING: Less than two connections to node -9V.  This node is used by V6.
WARNING: Less than two connections to node 5V.  This node is used by V7.
WARNING: Less than two connections to node -5V.  This node is used by V8.
WARNING: Less than two connections to node N010.  This node is used by R13.
WARNING: Less than two connections to node N025.  This node is used by R14.

Date: Sun Oct 26 22:27:39 2025
Total elapsed time: 0.038 seconds.

tnom = 27
temp = 27
method = trap
totiter = 0
traniter = 0
tranpoints = 0
accept = 0
rejected = 0
matrix size = 42
fillins = 20
solver = Normal

