Circuit: * C:\users\ostoja\Desktop\Elektronika\diff_sonde\DS100M08KV2\simulacije\two_opamp\ratio_analysis.asc

WARNING: Node N002 is floating.
WARNING: Node N003 is floating.
WARNING: Node N004 is floating.
WARNING: Node N056 is floating.
WARNING: Node N057 is floating.
WARNING: Node N058 is floating.
WARNING: Node N009 is floating.
WARNING: Node N010 is floating.
WARNING: Node N011 is floating.
WARNING: Node N061 is floating.
WARNING: Node N062 is floating.
WARNING: Node N063 is floating.

WARNING: Less than two connections to node 9V.  This node is used by V4.
WARNING: Less than two connections to node -9V.  This node is used by V6.
WARNING: Less than two connections to node 5V.  This node is used by V7.
WARNING: Less than two connections to node -5V.  This node is used by V8.
Direct Newton iteration for .op point succeeded.

Date: Sun Oct 26 15:47:41 2025
Total elapsed time: 0.327 seconds.

tnom = 27
temp = 27
method = trap
totiter = 2106
traniter = 2101
tranpoints = 1046
accept = 1045
rejected = 1
matrix size = 547
fillins = 653
solver = Normal

