Circuit: * E:\Elektronika\diff_probe\DS100M08KV2\simulacije\switch_placement\ac_analysis.asc

WARNING: Node N003 is floating.
WARNING: Node N004 is floating.
WARNING: Node N005 is floating.
WARNING: Node N033 is floating.
WARNING: Node N034 is floating.
WARNING: Node N035 is floating.

WARNING: Less than two connections to node 2.5V.  This node is used by V1.
WARNING: Less than two connections to node -2.5V.  This node is used by V2.
WARNING: Less than two connections to node 9V.  This node is used by V4.
WARNING: Less than two connections to node -9V.  This node is used by V6.
Direct Newton iteration for .op point succeeded.

Date: Fri Oct 24 10:03:41 2025
Total elapsed time: 0.034 seconds.

tnom = 27
temp = 27
method = trap
totiter = 49
traniter = 0
tranpoints = 0
accept = 0
rejected = 0
matrix size = 111
fillins = 51
solver = Normal
Matrix Compiler1:     415 opcodes
Matrix Compiler2:     782 opcodes
