Circuit: * C:\users\ostoja\Desktop\Elektronika\diff_sonde\DS100M08KV2\simulacije\switch_placement\ac_analysis.asc

WARNING: Node N004 is floating.
WARNING: Node N005 is floating.
WARNING: Node N006 is floating.
WARNING: Node N032 is floating.
WARNING: Node N033 is floating.
WARNING: Node N034 is floating.

WARNING: Less than two connections to node 2.5V.  This node is used by V1.
WARNING: Less than two connections to node -2.5V.  This node is used by V2.
WARNING: Less than two connections to node 9V.  This node is used by V4.
WARNING: Less than two connections to node -9V.  This node is used by V6.
Direct Newton iteration for .op point succeeded.

Date: Thu Oct 23 17:57:43 2025
Total elapsed time: 0.049 seconds.

tnom = 27
temp = 27
method = trap
totiter = 24
traniter = 0
tranpoints = 0
accept = 0
rejected = 0
matrix size = 60
fillins = 4
solver = Normal
Matrix Compiler1:     162 opcodes
Matrix Compiler2: 4.53 KB object code size
