Circuit: * C:\users\ostoja\Desktop\Elektronika\diff_sonde\DS100M08KV\simulacije\expanded_voltage\dc_analysis_wider_output.asc

WARNING: Node N002 is floating.
WARNING: Node N003 is floating.
WARNING: Node N004 is floating.
WARNING: Node N029 is floating.
WARNING: Node N030 is floating.
WARNING: Node N031 is floating.

WARNING: Less than two connections to node 2.5V.  This node is used by V1.
WARNING: Less than two connections to node -2.5V.  This node is used by V2.
WARNING: Less than two connections to node 9V.  This node is used by V4.
WARNING: Less than two connections to node -9V.  This node is used by V6.
Direct Newton iteration failed to find .op point.  (Use ".option noopiter" to skip.)
Starting Gmin stepping
Gmin = 10
vernier = 0.5
Gmin = 1.67772
vernier = 0.25
vernier = 0.125
Gmin = 1.24103
vernier = 0.0625
vernier = 0.03125
Gmin = 1.14839
vernier = 0.0416667
vernier = 0.0208333
Gmin = 1.09313
vernier = 0.0277778
vernier = 0.0138889
vernier = 0.0185185
vernier = 0.00925925
Gmin = 1.07186
vernier = 0.0123457
vernier = 0.00617283
Gmin = 1.05546
vernier = 0.00823044
vernier = 0.00411522
vernier = 0.00548696
Gmin = 1.04556
vernier = 0.00274348
vernier = 0.00365797
Gmin = 1.03913
vernier = 0.0048773
vernier = 0.00243865
Gmin = 1.03313
vernier = 0.00325153
vernier = 0.00162576
vernier = 0.00216769
Gmin = 1.02936
vernier = 0.00108384
vernier = 0.00144512
Gmin = 1.02648
vernier = 0.00192683
vernier = 0.000963415
Gmin = 1.02389
vernier = 0.00128455
vernier = 0.000642277
Gmin = 1.02159
vernier = 0.000481708
Gmin = 0
Trouble finding operating point....skipping operating point for Transient analysis.

Date: Sun Oct 19 21:39:29 2025
Total elapsed time: 0.962 seconds.

tnom = 27
temp = 27
method = trap
totiter = 8637
traniter = 0
tranpoints = 1
accept = 1
rejected = 0
matrix size = 166
fillins = 139
solver = Normal

