Circuit: * C:\users\ostoja\Desktop\Elektronika\diff_sonde\DS100M08KV\simulacije\8066.asc

WARNING: Node N002 is floating.
WARNING: Node N003 is floating.
WARNING: Node N004 is floating.
WARNING: Node N019 is floating.
WARNING: Node N020 is floating.
WARNING: Node N021 is floating.

WARNING: Less than two connections to node 2.5V.  This node is used by V1.
WARNING: Less than two connections to node -2.5V.  This node is used by V2.
WARNING: Less than two connections to node 9V.  This node is used by V4.
WARNING: Less than two connections to node -9V.  This node is used by V6.
Direct Newton iteration failed to find .op point.  (Use ".option noopiter" to skip.)
Starting Gmin stepping
Gmin = 10
vernier = 0.5
Gmin = 1.86414
vernier = 0.25
vernier = 0.125
vernier = 0.0625
vernier = 0.03125
Gmin = 1.98679
vernier = 0.015625
vernier = 0.0078125
Gmin = 1.95985
vernier = 0.0104167
vernier = 0.0138889
Gmin = 1.90294
vernier = 0.0185185
vernier = 0.0246913
Gmin = 1.81565
vernier = 0.0329218
Gmin = 1.68649
vernier = 0.0438957
vernier = 0.0585276
Gmin = 1.49042
vernier = 0.0780367
vernier = 0.104049
Gmin = 1.22473
vernier = 0.138732
vernier = 0.0693659
vernier = 0.034683
Gmin = 1.077
vernier = 0.0173415
vernier = 0.00867074
Gmin = 1.04491
vernier = 0.011561
vernier = 0.00578049
vernier = 0.00289025
Gmin = 1.03365
vernier = 0.00385366
vernier = 0.00192683
Gmin = 1.02794
vernier = 0.00256911
vernier = 0.00128455
Gmin = 1.02416
vernier = 0.00171274
vernier = 0.000856369
Gmin = 1.02131
vernier = 0.00114182
vernier = 0.000570912
Gmin = 1.0192
vernier = 0.000761216
Gmin = 1.0175
vernier = 0.00101495
vernier = 0.000507477
vernier = 0.000676636
Gmin = 1.01632
vernier = 0.000507477
vernier = 0.000676636
Gmin = 1.01516
vernier = 0.000507477
vernier = 0.000676636
vernier = 0.000507477
Gmin = 1.01443
Gmin = 0
Gmin stepping failed

Starting source stepping with srcstepmethod=0
Source Step = 3.0303%
Source Step = 33.3333%
Source Step = 63.6364%
Source Step = 93.9394%
Source stepping succeeded in finding the operating point.

Changing Tseed to 1e-013
Changing Tseed to 1e-015
Heightened Def Con from 1.05964e-015 ++++++++++++++++++++to 1.11925e-015
Heightened Def Con from 1.11925e-015 +++++++++++++to 1.1267e-015
Heightened Def Con from 1.1267e-015 +++++++++++++to 1.13415e-015
Heightened Def Con from 1.13415e-015 +++++++++++++to 1.1416e-015
Heightened Def Con from 1.1416e-015 +++++++++++++to 1.14905e-015
Heightened Def Con from 1.14905e-015 +++++++++++++to 1.1565e-015
Heightened Def Con from 1.1565e-015 +++++++++++++to 1.1575e-015
Heightened Def Con from 1.1575e-015 +++++++++++++to 1.1585e-015
Heightened Def Con from 1.1585e-015 +++++++++++++to 1.1595e-015
Heightened Def Con from 1.1595e-015 +++++++++++++to 1.1605e-015
Heightened Def Con from 1.1605e-015 ++++++++++++++to 1.2201e-015
Heightened Def Con from 1.2201e-015 ++++++++++++++to 1.22755e-015
Heightened Def Con from 1.22755e-015 ++++++++++++++to 1.235e-015
Heightened Def Con from 1.235e-015 ++++++++++++++to 1.24245e-015
Heightened Def Con from 1.24245e-015 ++++++++++++++to 1.24991e-015
Heightened Def Con from 1.24991e-015 ++++++++++++++to 1.25091e-015
Heightened Def Con from 1.25091e-015 ++++++++++++++to 1.25191e-015
Heightened Def Con from 1.25191e-015 ++++++++++++++to 1.25291e-015
Heightened Def Con from 1.25291e-015 ++++++++++++++to 1.26036e-015
Heightened Def Con from 1.26036e-015 ++++++++++++++to 1.31996e-015
Heightened Def Con from 1.31996e-015 +++++++++++++to 1.37957e-015
Heightened Def Con from 6.07268e-009 ++++++++++++++++++++to 7.07463e-009
Heightened Def Con from 7.07463e-009 ++++++++++to 7.21526e-009
Heightened Def Con from 7.21526e-009 to 7.35588e-009
Heightened Def Con from 1.45875e-008 +++++to 1.45875e-008
Heightened Def Con from 5.62574e-008 to 5.62574e-008
Heightened Def Con from 5.62574e-008 to 5.62574e-008
Heightened Def Con from 5.62574e-008 to 5.62574e-008
Heightened Def Con from 5.62574e-008 +to 5.62574e-008
Heightened Def Con from 5.62574e-008 to 5.62574e-008
Heightened Def Con from 5.62574e-008 ++++to 5.62574e-008
Heightened Def Con from 5.62574e-008 ++++to 5.62574e-008
Heightened Def Con from 5.62574e-008 to 5.62574e-008
Heightened Def Con from 5.62574e-008 ++++to 5.62574e-008
Heightened Def Con from 5.62574e-008 ++++to 5.62574e-008
Heightened Def Con from 5.62574e-008 to 5.62574e-008
Heightened Def Con from 5.62574e-008 ++++to 5.62574e-008
Heightened Def Con from 5.62574e-008 ++++to 5.62574e-008
Heightened Def Con from 5.62574e-008 to 5.62574e-008
Heightened Def Con from 5.62574e-008 ++++to 5.62574e-008
Heightened Def Con from 5.62574e-008 ++++to 5.62574e-008
Heightened Def Con from 5.62574e-008 ++++to 5.62574e-008
Heightened Def Con from 5.62574e-008 +++++to 5.62574e-008
Heightened Def Con from 5.62574e-008 to 5.62574e-008
Heightened Def Con from 6.21149e-008 to 6.21149e-008
Heightened Def Con from 6.21149e-008 +to 6.21149e-008
Heightened Def Con from 6.21149e-008 to 6.21149e-008
Heightened Def Con from 7.87826e-008 to 7.87826e-008
Heightened Def Con from 7.87826e-008 to 7.87826e-008
Heightened Def Con from 7.87826e-008 ++to 7.87826e-008
Heightened Def Con from 7.87826e-008 +++to 7.87826e-008
Heightened Def Con from 9.54505e-008 to 9.54505e-008
Heightened Def Con from 9.54505e-008 +to 9.54505e-008
Heightened Def Con from 9.54505e-008 to 9.54505e-008
Heightened Def Con from 1.31244e-007 ++++to 1.31244e-007
Heightened Def Con from 1.31244e-007 ++++to 1.31244e-007
Heightened Def Con from 1.31244e-007 +++++to 1.31244e-007
Heightened Def Con from 1.31244e-007 ++++to 1.31244e-007
Heightened Def Con from 1.31244e-007 ++++++to 1.31244e-007
Heightened Def Con from 1.45451e-007 to 1.45451e-007
Heightened Def Con from 1.45451e-007 to 1.45451e-007
Heightened Def Con from 1.45451e-007 to 1.45451e-007
Heightened Def Con from 1.45451e-007 to 1.45451e-007
Heightened Def Con from 1.45451e-007 to 1.45451e-007
Heightened Def Con from 1.72923e-007 to 1.72923e-007
Heightened Def Con from 1.72923e-007 +to 1.72923e-007
Heightened Def Con from 1.72923e-007 to 1.72923e-007
Heightened Def Con from 1.72923e-007 ++++to 1.72923e-007
Heightened Def Con from 1.72923e-007 +to 1.72923e-007
Heightened Def Con from 1.72923e-007 ++to 1.72923e-007
Heightened Def Con from 1.72923e-007 +to 1.72923e-007
Heightened Def Con from 1.72923e-007 ++++to 1.72923e-007
Heightened Def Con from 1.72923e-007 to 1.72923e-007
Heightened Def Con from 1.72923e-007 ++++to 1.72923e-007
Heightened Def Con from 1.72923e-007 to 1.72923e-007
Heightened Def Con from 1.72923e-007 to 1.72923e-007
Heightened Def Con from 1.72923e-007 ++++to 1.72923e-007
Heightened Def Con from 1.72923e-007 to 1.72923e-007
Heightened Def Con from 1.72923e-007 ++++to 1.72923e-007
Heightened Def Con from 1.72923e-007 to 1.72923e-007
Heightened Def Con from 1.72923e-007 ++++to 1.72923e-007
Heightened Def Con from 1.72923e-007 ++++to 1.72923e-007
Heightened Def Con from 1.72923e-007 ++++++to 1.72923e-007
Heightened Def Con from 1.72923e-007 to 1.72923e-007
Heightened Def Con from 1.81244e-007 to 1.81244e-007
Heightened Def Con from 1.81244e-007 +++++to 1.81244e-007
Heightened Def Con from 1.81244e-007 ++++to 1.81244e-007
Heightened Def Con from 1.81244e-007 ++++to 1.81244e-007
Heightened Def Con from 1.81244e-007 ++++++to 1.81244e-007
Heightened Def Con from 1.95447e-007 to 1.95447e-007
Heightened Def Con from 1.95447e-007 +to 1.95447e-007
Heightened Def Con from 1.95447e-007 to 1.95447e-007
Heightened Def Con from 2.06257e-007 to 2.06257e-007
Heightened Def Con from 2.06257e-007 ++to 2.06257e-007
Heightened Def Con from 2.06257e-007 +to 2.06257e-007
Heightened Def Con from 2.06257e-007 ++to 2.06257e-007
Heightened Def Con from 2.06257e-007 to 2.06257e-007
Heightened Def Con from 2.06257e-007 ++++to 2.06257e-007
Heightened Def Con from 2.06257e-007 ++++to 2.06257e-007
Heightened Def Con from 2.06257e-007 to 2.06257e-007
Heightened Def Con from 2.06257e-007 ++++to 2.06257e-007
Heightened Def Con from 2.06257e-007 to 2.06257e-007
Heightened Def Con from 2.06257e-007 ++++to 2.06257e-007
Heightened Def Con from 2.06257e-007 to 2.06257e-007
Heightened Def Con from 2.06257e-007 to 2.06257e-007
Heightened Def Con from 2.06257e-007 ++++to 2.06257e-007
Heightened Def Con from 2.06257e-007 ++++to 2.06257e-007
Heightened Def Con from 2.06257e-007 ++++to 2.06257e-007
Heightened Def Con from 2.06257e-007 ++++to 2.06257e-007
Heightened Def Con from 2.06257e-007 ++++to 2.06257e-007
Heightened Def Con from 2.06257e-007 ++++++to 2.06257e-007
Heightened Def Con from 2.06257e-007 to 2.06257e-007
Heightened Def Con from 2.39591e-007 to 2.39591e-007
Heightened Def Con from 2.39591e-007 ++to 2.39591e-007
Heightened Def Con from 2.39591e-007 to 2.39591e-007
Heightened Def Con from 2.39591e-007 +to 2.39591e-007
Heightened Def Con from 2.39591e-007 ++to 2.39591e-007
Heightened Def Con from 2.39591e-007 ++to 2.39591e-007
Heightened Def Con from 2.39591e-007 +to 2.39591e-007
Heightened Def Con from 2.39591e-007 ++++to 2.39591e-007
Heightened Def Con from 2.39591e-007 to 2.39591e-007
Heightened Def Con from 2.39591e-007 to 2.39591e-007
Heightened Def Con from 2.39591e-007 ++++to 2.39591e-007
Heightened Def Con from 2.39591e-007 to 2.39591e-007
Heightened Def Con from 2.39591e-007 ++++to 2.39591e-007
Heightened Def Con from 2.39591e-007 to 2.39591e-007
Heightened Def Con from 2.39591e-007 ++++to 2.39591e-007
Heightened Def Con from 2.39591e-007 ++++to 2.39591e-007
Heightened Def Con from 2.39591e-007 to 2.39591e-007
Heightened Def Con from 2.39591e-007 ++++to 2.39591e-007
Heightened Def Con from 2.39591e-007 ++++to 2.39591e-007
Heightened Def Con from 2.39591e-007 ++++to 2.39591e-007
Heightened Def Con from 2.39591e-007 to 2.39591e-007
Heightened Def Con from 2.39591e-007 ++++++to 2.39591e-007
Heightened Def Con from 2.45448e-007 ++++++++++++++++++++to 2.45448e-007
Heightened Def Con from 2.45448e-007 +++++++++++++++to 2.45449e-007
Heightened Def Con from 2.45449e-007 +++++++++++++++to 2.45449e-007
Heightened Def Con from 2.45449e-007 +++++++++++++++to 2.45449e-007
Heightened Def Con from 2.45449e-007 +++++++++++++++to 2.45449e-007
Heightened Def Con from 2.45449e-007 +++++++++++++++to 2.45449e-007
Heightened Def Con from 2.45449e-007 +++++++++++++++to 2.45449e-007
Heightened Def Con from 2.45449e-007 +++++++++++++++to 2.45449e-007
Heightened Def Con from 2.45449e-007 +++++++++++++++to 2.45449e-007
Heightened Def Con from 2.45449e-007 +++++++++++++++to 2.45449e-007
Heightened Def Con from 2.45449e-007 +++++++++++++++to 2.45449e-007
Heightened Def Con from 2.62116e-007 to 2.62116e-007
Heightened Def Con from 2.62116e-007 +to 2.62116e-007
Heightened Def Con from 2.62116e-007 to 2.62116e-007
Heightened Def Con from 2.72924e-007 ++++to 2.72924e-007
Heightened Def Con from 2.72924e-007 ++to 2.72924e-007
Heightened Def Con from 2.72924e-007 ++++to 2.72924e-007
Heightened Def Con from 2.72924e-007 ++++to 2.72924e-007
Heightened Def Con from 2.72924e-007 ++++to 2.72924e-007
Heightened Def Con from 2.72924e-007 to 2.72924e-007
Heightened Def Con from 2.72924e-007 ++++to 2.72924e-007
Heightened Def Con from 2.72924e-007 to 2.72924e-007
Heightened Def Con from 2.72924e-007 ++++to 2.72924e-007
Heightened Def Con from 2.72924e-007 ++++to 2.72924e-007
Heightened Def Con from 2.72924e-007 to 2.72924e-007
Heightened Def Con from 2.72924e-007 ++++to 2.72924e-007
Heightened Def Con from 2.72924e-007 to 2.72924e-007
Heightened Def Con from 2.72924e-007 ++++to 2.72924e-007
Heightened Def Con from 2.72924e-007 to 2.72924e-007
Heightened Def Con from 2.72924e-007 ++++to 2.72924e-007
Heightened Def Con from 2.72924e-007 ++++to 2.72924e-007
Heightened Def Con from 2.72924e-007 to 2.72924e-007
Heightened Def Con from 2.72924e-007 ++++++to 2.72924e-007
Heightened Def Con from 2.78781e-007 to 2.78781e-007
Heightened Def Con from 2.78781e-007 to 2.78781e-007
Heightened Def Con from 2.89591e-007 to 2.89591e-007
Heightened Def Con from 2.89591e-007 to 2.89591e-007
Heightened Def Con from 2.89591e-007 +to 2.89591e-007
Heightened Def Con from 2.89591e-007 +to 2.89591e-007
Heightened Def Con from 2.89591e-007 ++++++to 2.89591e-007
Heightened Def Con from 2.89591e-007 ++++to 2.89591e-007
Heightened Def Con from 2.89591e-007 to 2.89591e-007
Heightened Def Con from 2.89591e-007 ++++to 2.89591e-007
Heightened Def Con from 2.89591e-007 ++++to 2.89591e-007
Heightened Def Con from 2.89591e-007 ++++to 2.89591e-007
Heightened Def Con from 2.89591e-007 ++++to 2.89591e-007
Heightened Def Con from 2.89591e-007 ++++to 2.89591e-007
Heightened Def Con from 2.89591e-007 ++++to 2.89591e-007
Heightened Def Con from 2.89591e-007 ++++to 2.89591e-007
Heightened Def Con from 2.89591e-007 ++++to 2.89591e-007
Heightened Def Con from 2.89591e-007 ++++to 2.89591e-007
Heightened Def Con from 2.89591e-007 ++++to 2.89591e-007
Heightened Def Con from 2.89591e-007 to 2.89591e-007
Heightened Def Con from 2.89591e-007 ++++to 2.89591e-007
Heightened Def Con from 2.89591e-007 ++++to 2.89591e-007
Heightened Def Con from 2.89591e-007 to 2.89591e-007
Heightened Def Con from 2.89591e-007 ++++to 2.89591e-007
Heightened Def Con from 2.89591e-007 ++++to 2.89591e-007
Heightened Def Con from 2.89591e-007 to 2.89591e-007
Heightened Def Con from 2.89591e-007 ++++to 2.89591e-007
Heightened Def Con from 2.89591e-007 to 2.89591e-007
Heightened Def Con from 2.89591e-007 ++++++to 2.89591e-007
Heightened Def Con from 2.89591e-007 ++++++to 2.89591e-007
Heightened Def Con from 2.89591e-007 to 2.89591e-007
Heightened Def Con from 2.95448e-007 to 2.95448e-007
Heightened Def Con from 2.95448e-007 ++to 2.95448e-007
Heightened Def Con from 2.95448e-007 ++to 2.95448e-007
Heightened Def Con from 2.95448e-007 ++to 2.95448e-007
Heightened Def Con from 2.95448e-007 +++to 2.95448e-007
Heightened Def Con from 2.95448e-007 ++++to 2.95448e-007
Heightened Def Con from 2.95448e-007 ++++to 2.95448e-007
Heightened Def Con from 2.95448e-007 ++++to 2.95448e-007
Heightened Def Con from 2.95448e-007 ++++to 2.95448e-007
Heightened Def Con from 2.95448e-007 ++++to 2.95448e-007
Heightened Def Con from 2.95448e-007 +++++to 2.95448e-007
Heightened Def Con from 2.95448e-007 +++++to 2.95448e-007
Heightened Def Con from 2.95448e-007 +++++to 2.95448e-007
Heightened Def Con from 2.95448e-007 +++++to 2.95448e-007
Heightened Def Con from 2.95448e-007 +++++to 2.95448e-007
Heightened Def Con from 2.95448e-007 +++++to 2.95448e-007
Heightened Def Con from 2.95448e-007 +++++to 2.95448e-007
Heightened Def Con from 3.12117e-007 ++++++++++++++++++++to 3.12117e-007
Heightened Def Con from 3.12117e-007 +++++++++++++++to 3.12117e-007
Heightened Def Con from 3.12117e-007 +++++++++++++++to 3.12117e-007
Heightened Def Con from 3.12117e-007 +++++++++++++++to 3.12117e-007
Heightened Def Con from 3.12117e-007 +++++++++++++++to 3.12117e-007
Heightened Def Con from 3.12117e-007 +++++++++++++++to 3.12117e-007
Heightened Def Con from 3.12117e-007 +++++++++++++++to 3.12117e-007
Heightened Def Con from 3.22924e-007 to 3.22924e-007
Heightened Def Con from 3.22924e-007 ++++to 3.22924e-007
Heightened Def Con from 3.22924e-007 ++++to 3.22924e-007
Heightened Def Con from 3.22924e-007 to 3.22924e-007
Heightened Def Con from 3.22924e-007 ++to 3.22924e-007
Heightened Def Con from 3.22924e-007 to 3.22924e-007
Heightened Def Con from 3.22924e-007 ++++to 3.22924e-007
Heightened Def Con from 3.22924e-007 ++++to 3.22924e-007
Heightened Def Con from 3.22924e-007 ++++to 3.22924e-007
Heightened Def Con from 3.22924e-007 to 3.22924e-007
Heightened Def Con from 3.22924e-007 ++to 3.22924e-007
Heightened Def Con from 3.22924e-007 ++++to 3.22924e-007
Heightened Def Con from 3.22924e-007 to 3.22924e-007
Heightened Def Con from 3.22924e-007 ++++++to 3.22924e-007
Heightened Def Con from 3.28781e-007 to 3.28781e-007
Heightened Def Con from 3.28781e-007 +to 3.28781e-007
Heightened Def Con from 3.28781e-007 to 3.28781e-007
Heightened Def Con from 3.4545e-007 to 3.4545e-007
Heightened Def Con from 3.4545e-007 ++++++++++++++++++++to 3.4545e-007
Heightened Def Con from 3.4545e-007 +++++++++++++++to 3.4545e-007
Heightened Def Con from 3.4545e-007 +++++++++++++++to 3.4545e-007
Heightened Def Con from 3.4545e-007 +++++++++++++++to 3.4545e-007
Heightened Def Con from 3.4545e-007 +++++++++++++++to 3.4545e-007
Heightened Def Con from 3.4545e-007 +++++++++++++++to 3.4545e-007
Heightened Def Con from 3.4545e-007 +++++++++++++++to 3.4545e-007
Heightened Def Con from 3.62116e-007 to 3.62116e-007
Heightened Def Con from 3.62116e-007 ++to 3.62116e-007
Heightened Def Con from 3.62116e-007 ++to 3.62116e-007
Heightened Def Con from 3.62116e-007 +++to 3.62116e-007
Heightened Def Con from 3.62116e-007 ++++to 3.62116e-007
Heightened Def Con from 3.62116e-007 ++++to 3.62116e-007
Heightened Def Con from 3.62116e-007 ++++to 3.62116e-007
Heightened Def Con from 3.62116e-007 ++++to 3.62116e-007
Heightened Def Con from 3.62116e-007 ++++to 3.62116e-007
Heightened Def Con from 3.62116e-007 +++++to 3.62116e-007
Heightened Def Con from 3.62116e-007 +++++to 3.62116e-007
Heightened Def Con from 3.62116e-007 +++++to 3.62116e-007
Heightened Def Con from 3.62116e-007 +++++to 3.62116e-007
Heightened Def Con from 3.89591e-007 to 3.89591e-007
Heightened Def Con from 3.89591e-007 to 3.89591e-007
Heightened Def Con from 3.89591e-007 ++to 3.89591e-007
Heightened Def Con from 3.89591e-007 ++++to 3.89591e-007
Heightened Def Con from 3.89591e-007 ++++to 3.89591e-007
Heightened Def Con from 3.89591e-007 to 3.89591e-007
Heightened Def Con from 3.89591e-007 ++++to 3.89591e-007
Heightened Def Con from 3.89591e-007 ++++to 3.89591e-007
Heightened Def Con from 3.89591e-007 ++++to 3.89591e-007
Heightened Def Con from 3.89591e-007 ++++to 3.89591e-007
Heightened Def Con from 3.89591e-007 to 3.89591e-007
Heightened Def Con from 3.89591e-007 +to 3.89591e-007
Heightened Def Con from 3.89591e-007 ++++to 3.89591e-007
Heightened Def Con from 3.89591e-007 ++++to 3.89591e-007
Heightened Def Con from 3.89591e-007 to 3.89591e-007
Heightened Def Con from 3.89591e-007 +++++to 3.89591e-007
Heightened Def Con from 3.89591e-007 to 3.89591e-007
Heightened Def Con from 3.89591e-007 ++++to 3.89591e-007
Heightened Def Con from 3.89591e-007 ++++to 3.89591e-007
Heightened Def Con from 3.89591e-007 to 3.89591e-007
Heightened Def Con from 3.89591e-007 ++++to 3.89591e-007
Heightened Def Con from 3.89591e-007 to 3.89591e-007
Heightened Def Con from 3.89591e-007 ++++to 3.89591e-007
Heightened Def Con from 3.89591e-007 ++++++to 3.89591e-007
Heightened Def Con from 3.89591e-007 ++++++to 3.89591e-007
Heightened Def Con from 3.95448e-007 to 3.95448e-007
Heightened Def Con from 3.95448e-007 to 3.95448e-007
Heightened Def Con from 3.95448e-007 +to 3.95448e-007
Heightened Def Con from 3.95448e-007 to 3.95448e-007
Heightened Def Con from 3.95448e-007 to 3.95448e-007
Heightened Def Con from 3.97914e-007 +to 3.97914e-007
Heightened Def Con from 3.97914e-007 ++++to 3.97914e-007
Heightened Def Con from 3.97914e-007 to 3.97914e-007
Heightened Def Con from 3.97914e-007 ++++to 3.97914e-007
Heightened Def Con from 3.97914e-007 to 3.97914e-007
Heightened Def Con from 3.97914e-007 ++++to 3.97914e-007
Heightened Def Con from 3.97914e-007 ++++to 3.97914e-007
Heightened Def Con from 3.97914e-007 ++++to 3.97914e-007
Heightened Def Con from 3.97914e-007 +++++to 3.97914e-007
Heightened Def Con from 3.97914e-007 to 3.97914e-007
Heightened Def Con from 4.03735e-007 ++++++++++++++++++++to 4.03737e-007
Heightened Def Con from 4.03737e-007 +++++++++++++to 4.03737e-007
Heightened Def Con from 4.03737e-007 +++++++++++++to 4.03737e-007
Heightened Def Con from 4.03737e-007 +++++++++++++to 4.03737e-007
Heightened Def Con from 4.03737e-007 +++++++++++++to 4.03737e-007
Heightened Def Con from 4.03737e-007 +++++++++++++to 4.03737e-007
Heightened Def Con from 4.03737e-007 +++++++++++++to 4.03737e-007
Heightened Def Con from 4.03737e-007 +++++++++++++to 4.03737e-007
Heightened Def Con from 4.12116e-007 to 4.12116e-007
Heightened Def Con from 4.12116e-007 to 4.12116e-007
Heightened Def Con from 4.12116e-007 +to 4.12116e-007
Heightened Def Con from 4.12116e-007 ++to 4.12116e-007
Heightened Def Con from 4.22924e-007 +to 4.22924e-007
Heightened Def Con from 4.22924e-007 ++to 4.22924e-007
Heightened Def Con from 4.22924e-007 +to 4.22924e-007
Heightened Def Con from 4.22924e-007 ++to 4.22924e-007
Heightened Def Con from 4.22924e-007 to 4.22924e-007
Heightened Def Con from 4.22924e-007 to 4.22924e-007
Heightened Def Con from 4.22924e-007 +to 4.22924e-007
Heightened Def Con from 4.22924e-007 ++++to 4.22924e-007
Heightened Def Con from 4.22924e-007 +to 4.22924e-007
Heightened Def Con from 4.22924e-007 ++++to 4.22924e-007
Heightened Def Con from 4.22924e-007 ++++to 4.22924e-007
Heightened Def Con from 4.22924e-007 ++++++to 4.22924e-007
Heightened Def Con from 4.28781e-007 to 4.28781e-007
Heightened Def Con from 4.28781e-007 ++++++++++++++++++++to 4.28783e-007
Heightened Def Con from 4.28783e-007 +++++++++++++++to 4.28783e-007
Heightened Def Con from 4.3959e-007 ++to 4.3959e-007
Heightened Def Con from 4.3959e-007 +to 4.3959e-007
Heightened Def Con from 4.3959e-007 to 4.3959e-007
Heightened Def Con from 4.3959e-007 ++to 4.3959e-007
Heightened Def Con from 4.3959e-007 to 4.3959e-007
Heightened Def Con from 4.3959e-007 to 4.3959e-007
Heightened Def Con from 4.3959e-007 ++to 4.3959e-007
Heightened Def Con from 4.3959e-007 to 4.3959e-007
Heightened Def Con from 4.3959e-007 to 4.3959e-007
Heightened Def Con from 4.3959e-007 +++++to 4.3959e-007
Heightened Def Con from 4.3959e-007 ++++to 4.3959e-007
Heightened Def Con from 4.3959e-007 ++++to 4.3959e-007
Heightened Def Con from 4.3959e-007 ++++to 4.3959e-007
Heightened Def Con from 4.3959e-007 ++++to 4.3959e-007
Heightened Def Con from 4.3959e-007 ++++to 4.3959e-007
Heightened Def Con from 4.3959e-007 to 4.3959e-007
Heightened Def Con from 4.3959e-007 ++++++to 4.3959e-007
Heightened Def Con from 4.3959e-007 ++++to 4.3959e-007
Heightened Def Con from 4.3959e-007 ++++to 4.3959e-007
Heightened Def Con from 4.3959e-007 ++++to 4.3959e-007
Heightened Def Con from 4.3959e-007 ++++to 4.3959e-007
Heightened Def Con from 4.3959e-007 to 4.3959e-007
Heightened Def Con from 4.3959e-007 ++++to 4.3959e-007
Heightened Def Con from 4.3959e-007 to 4.3959e-007
Heightened Def Con from 4.3959e-007 ++++to 4.3959e-007
Heightened Def Con from 4.3959e-007 to 4.3959e-007
Heightened Def Con from 4.3959e-007 ++++to 4.3959e-007
Heightened Def Con from 4.3959e-007 ++++to 4.3959e-007
Heightened Def Con from 4.3959e-007 to 4.3959e-007
Heightened Def Con from 4.3959e-007 to 4.3959e-007
Heightened Def Con from 4.3959e-007 ++++to 4.3959e-007
Heightened Def Con from 4.3959e-007 to 4.3959e-007
Heightened Def Con from 4.3959e-007 ++++to 4.3959e-007
Heightened Def Con from 4.3959e-007 ++++++to 4.3959e-007
Heightened Def Con from 4.3959e-007 ++++to 4.3959e-007
Heightened Def Con from 4.3959e-007 ++++to 4.3959e-007
Heightened Def Con from 4.3959e-007 to 4.3959e-007
Heightened Def Con from 4.3959e-007 ++++++to 4.3959e-007
Heightened Def Con from 4.3959e-007 ++++++to 4.3959e-007
Heightened Def Con from 4.3959e-007 to 4.3959e-007
Heightened Def Con from 4.45448e-007 to 4.45448e-007
Heightened Def Con from 4.45448e-007 to 4.45448e-007
Heightened Def Con from 4.47914e-007 ++++to 4.47914e-007
Heightened Def Con from 4.47914e-007 ++++to 4.47914e-007
Heightened Def Con from 4.47914e-007 to 4.47914e-007
Heightened Def Con from 4.47914e-007 ++++to 4.47914e-007
Heightened Def Con from 4.47914e-007 to 4.47914e-007
Heightened Def Con from 4.47914e-007 to 4.47914e-007
Heightened Def Con from 4.47914e-007 ++++to 4.47914e-007
Heightened Def Con from 4.47914e-007 ++++++to 4.47914e-007
Heightened Def Con from 4.64578e-007 +to 4.64578e-007
Heightened Def Con from 4.64578e-007 ++++to 4.64578e-007
Heightened Def Con from 4.64578e-007 ++++to 4.64578e-007
Heightened Def Con from 4.64578e-007 +++++to 4.64578e-007
Heightened Def Con from 4.64578e-007 to 4.64578e-007
Heightened Def Con from 4.64578e-007 +++++to 4.64578e-007
Heightened Def Con from 4.64578e-007 to 4.64578e-007
Heightened Def Con from 4.64578e-007 ++++to 4.64578e-007
Heightened Def Con from 4.64578e-007 to 4.64578e-007
Heightened Def Con from 4.64578e-007 to 4.64578e-007
Heightened Def Con from 4.64578e-007 ++++to 4.64578e-007
Heightened Def Con from 4.64578e-007 to 4.64578e-007
Heightened Def Con from 4.64578e-007 to 4.64578e-007
Heightened Def Con from 4.64578e-007 ++++to 4.64578e-007
Heightened Def Con from 4.64578e-007 ++++++to 4.64578e-007
Heightened Def Con from 4.78781e-007 to 4.78781e-007
Heightened Def Con from 4.78781e-007 to 4.78781e-007
Heightened Def Con from 4.78781e-007 +to 4.78781e-007
Heightened Def Con from 4.78781e-007 +to 4.78781e-007
Heightened Def Con from 4.78781e-007 ++to 4.78781e-007
Heightened Def Con from 4.95449e-007 to 4.95449e-007
Heightened Def Con from 4.95449e-007 to 4.95449e-007
Heightened Def Con from 4.95449e-007 +to 4.95449e-007
Heightened Def Con from 4.95449e-007 +to 4.95449e-007
Heightened Def Con from 4.95449e-007 ++to 4.95449e-007
Heightened Def Con from 5.12115e-007 to 5.12115e-007
Heightened Def Con from 5.12115e-007 to 5.12115e-007
Heightened Def Con from 5.12115e-007 ++to 5.12115e-007
Heightened Def Con from 5.1458e-007 to 5.1458e-007
Heightened Def Con from 5.1458e-007 to 5.1458e-007
Heightened Def Con from 5.1458e-007 ++++to 5.1458e-007
Heightened Def Con from 5.1458e-007 ++++++to 5.1458e-007
Heightened Def Con from 5.31244e-007 ++++to 5.31244e-007
Heightened Def Con from 5.31244e-007 to 5.31244e-007
Heightened Def Con from 5.31244e-007 ++++to 5.31244e-007
Heightened Def Con from 5.31244e-007 ++++to 5.31244e-007
Heightened Def Con from 5.31244e-007 ++++to 5.31244e-007
Heightened Def Con from 5.31244e-007 ++++++to 5.31244e-007
Heightened Def Con from 5.45448e-007 to 5.45448e-007
Heightened Def Con from 5.45448e-007 to 5.45448e-007
Heightened Def Con from 5.45448e-007 +to 5.45448e-007
Heightened Def Con from 5.45448e-007 ++to 5.45448e-007
Heightened Def Con from 5.62117e-007 ++++++++++++++++++++to 5.62117e-007
Heightened Def Con from 5.62117e-007 +++++++++++++++to 5.62117e-007
Heightened Def Con from 5.62117e-007 +++++++++++++++to 5.62117e-007
Heightened Def Con from 5.62117e-007 +++++++++++++++to 5.62117e-007
Heightened Def Con from 5.62117e-007 +++++++++++++++to 5.62117e-007
Heightened Def Con from 5.78783e-007 to 5.78783e-007
Heightened Def Con from 5.78783e-007 to 5.78783e-007
Heightened Def Con from 5.78783e-007 to 5.78783e-007
Heightened Def Con from 5.95451e-007 to 5.95451e-007
Heightened Def Con from 5.95451e-007 +to 5.95451e-007
Heightened Def Con from 6.12114e-007 to 6.12114e-007
Heightened Def Con from 6.12114e-007 to 6.12114e-007
Heightened Def Con from 6.12114e-007 ++to 6.12114e-007
Heightened Def Con from 6.12114e-007 ++to 6.12114e-007
Heightened Def Con from 6.12114e-007 ++to 6.12114e-007
Heightened Def Con from 6.12114e-007 +++to 6.12114e-007
Heightened Def Con from 6.12114e-007 +++to 6.12114e-007
Heightened Def Con from 6.12114e-007 ++++to 6.12114e-007
Heightened Def Con from 6.12114e-007 ++++to 6.12114e-007
Heightened Def Con from 6.12114e-007 ++++to 6.12114e-007
Heightened Def Con from 6.12114e-007 ++++to 6.12114e-007
Heightened Def Con from 6.12114e-007 ++++to 6.12114e-007
Heightened Def Con from 6.12114e-007 +++++to 6.12114e-007
Heightened Def Con from 6.12114e-007 +++++to 6.12114e-007
Heightened Def Con from 6.12114e-007 +++++to 6.12114e-007
Heightened Def Con from 6.12114e-007 +++++to 6.12114e-007
Heightened Def Con from 6.12114e-007 to 6.12114e-007
Heightened Def Con from 6.28782e-007 to 6.28782e-007
Heightened Def Con from 6.28782e-007 +to 6.28782e-007
Heightened Def Con from 6.28782e-007 to 6.28782e-007
Heightened Def Con from 6.45449e-007 to 6.45449e-007
Heightened Def Con from 6.45449e-007 to 6.45449e-007
Heightened Def Con from 6.45449e-007 +to 6.45449e-007
Heightened Def Con from 6.45449e-007 to 6.45449e-007
Heightened Def Con from 6.47915e-007 to 6.47915e-007
Heightened Def Con from 6.47915e-007 ++to 6.47915e-007
Heightened Def Con from 6.47915e-007 ++++to 6.47915e-007
Heightened Def Con from 6.47915e-007 ++++to 6.47915e-007
Heightened Def Con from 6.47915e-007 +++++to 6.47915e-007
Heightened Def Con from 6.47915e-007 to 6.47915e-007
Heightened Def Con from 6.56257e-007 to 6.56257e-007
Heightened Def Con from 6.56257e-007 ++to 6.56257e-007
Heightened Def Con from 6.56257e-007 +to 6.56257e-007
Heightened Def Con from 6.56257e-007 +to 6.56257e-007
Heightened Def Con from 6.56257e-007 ++++to 6.56257e-007
Heightened Def Con from 6.56257e-007 ++++to 6.56257e-007
Heightened Def Con from 6.56257e-007 ++++to 6.56257e-007
Heightened Def Con from 6.56257e-007 +++++to 6.56257e-007
Heightened Def Con from 6.56257e-007 to 6.56257e-007
Heightened Def Con from 6.56257e-007 ++++to 6.56257e-007
Heightened Def Con from 6.56257e-007 ++++to 6.56257e-007
Heightened Def Con from 6.56257e-007 ++++to 6.56257e-007
Heightened Def Con from 6.56257e-007 ++++to 6.56257e-007
Heightened Def Con from 6.56257e-007 ++++to 6.56257e-007
Heightened Def Con from 6.56257e-007 ++++++to 6.56257e-007
Heightened Def Con from 6.62115e-007 to 6.62115e-007
Heightened Def Con from 6.62115e-007 to 6.62115e-007
Heightened Def Con from 6.6458e-007 ++++to 6.6458e-007
Heightened Def Con from 6.6458e-007 ++++to 6.6458e-007
Heightened Def Con from 6.6458e-007 ++++to 6.6458e-007
Heightened Def Con from 6.6458e-007 ++++to 6.6458e-007
Heightened Def Con from 6.6458e-007 ++++++to 6.6458e-007
Heightened Def Con from 6.70401e-007 to 6.70401e-007
Heightened Def Con from 6.7291e-007 ++to 6.7291e-007
Heightened Def Con from 6.7291e-007 to 6.7291e-007
Heightened Def Con from 6.7291e-007 +to 6.7291e-007
Heightened Def Con from 6.7291e-007 to 6.7291e-007
Heightened Def Con from 6.7291e-007 ++++++to 6.7291e-007
Heightened Def Con from 6.7291e-007 ++++to 6.7291e-007
Heightened Def Con from 6.7291e-007 ++++to 6.7291e-007
Heightened Def Con from 6.7291e-007 ++++to 6.7291e-007
Heightened Def Con from 6.7291e-007 ++++to 6.7291e-007
Heightened Def Con from 6.7291e-007 to 6.7291e-007
Heightened Def Con from 6.7291e-007 ++++to 6.7291e-007
Heightened Def Con from 6.7291e-007 ++++to 6.7291e-007
Heightened Def Con from 6.7291e-007 to 6.7291e-007
Heightened Def Con from 6.7291e-007 ++++to 6.7291e-007
Heightened Def Con from 6.7291e-007 to 6.7291e-007
Heightened Def Con from 6.7291e-007 ++++to 6.7291e-007
Heightened Def Con from 6.7291e-007 ++++to 6.7291e-007
Heightened Def Con from 6.7291e-007 ++++++to 6.7291e-007
Heightened Def Con from 6.97911e-007 to 6.97911e-007
Heightened Def Con from 6.97911e-007 +to 6.97911e-007
Heightened Def Con from 6.97911e-007 ++++to 6.97911e-007
Heightened Def Con from 6.97911e-007 ++++to 6.97911e-007
Heightened Def Con from 6.97911e-007 ++++to 6.97911e-007
Heightened Def Con from 6.97911e-007 ++++to 6.97911e-007
Heightened Def Con from 6.97911e-007 +++++to 6.97911e-007
Heightened Def Con from 6.97911e-007 to 6.97911e-007
Heightened Def Con from 7.12114e-007 to 7.12114e-007
Heightened Def Con from 7.12114e-007 to 7.12114e-007
Heightened Def Con from 7.12114e-007 to 7.12114e-007
Heightened Def Con from 7.12114e-007 +to 7.12114e-007
Heightened Def Con from 7.12114e-007 +++to 7.12114e-007
Heightened Def Con from 7.12114e-007 +++to 7.12114e-007
Heightened Def Con from 7.12114e-007 +++to 7.12114e-007
Heightened Def Con from 7.12114e-007 ++++to 7.12114e-007
Heightened Def Con from 7.12114e-007 ++++to 7.12114e-007
Heightened Def Con from 7.12114e-007 ++++to 7.12114e-007
Heightened Def Con from 7.12114e-007 ++++to 7.12114e-007
Heightened Def Con from 7.12114e-007 ++++to 7.12114e-007
Heightened Def Con from 7.12114e-007 ++++to 7.12114e-007
Heightened Def Con from 7.12114e-007 +++++to 7.12114e-007
Heightened Def Con from 7.12114e-007 +++++to 7.12114e-007
Heightened Def Con from 7.12114e-007 +++++to 7.12114e-007
Heightened Def Con from 7.12114e-007 +++++to 7.12114e-007
Heightened Def Con from 7.28783e-007 to 7.28783e-007
Heightened Def Con from 7.28783e-007 to 7.28783e-007
Heightened Def Con from 7.45447e-007 to 7.45447e-007
Heightened Def Con from 7.45447e-007 +to 7.45447e-007
Heightened Def Con from 7.45447e-007 +to 7.45447e-007
Heightened Def Con from 7.45447e-007 ++to 7.45447e-007
Heightened Def Con from 7.62116e-007 to 7.62116e-007
Heightened Def Con from 7.62116e-007 +to 7.62116e-007
Heightened Def Con from 7.62116e-007 to 7.62116e-007
Heightened Def Con from 7.78783e-007 to 7.78783e-007
Heightened Def Con from 7.78783e-007 +to 7.78783e-007
Heightened Def Con from 7.78783e-007 +to 7.78783e-007
Heightened Def Con from 7.78783e-007 ++to 7.78783e-007
Heightened Def Con from 7.81247e-007 to 7.81247e-007
Heightened Def Con from 7.81247e-007 ++to 7.81247e-007
Heightened Def Con from 7.81247e-007 ++++to 7.81247e-007
Heightened Def Con from 7.81247e-007 ++to 7.81247e-007
Heightened Def Con from 7.81247e-007 +to 7.81247e-007
Heightened Def Con from 7.81247e-007 +++++to 7.81247e-007
Heightened Def Con from 7.81247e-007 to 7.81247e-007
Heightened Def Con from 7.81247e-007 to 7.81247e-007
Heightened Def Con from 7.81247e-007 ++++++to 7.81247e-007
Heightened Def Con from 7.95451e-007 to 7.95451e-007
Heightened Def Con from 7.95451e-007 to 7.95451e-007
Heightened Def Con from 7.95451e-007 to 7.95451e-007
Heightened Def Con from 8.12116e-007 to 8.12116e-007
Heightened Def Con from 8.12116e-007 ++++++++++++++++++++to 8.12116e-007
Heightened Def Con from 8.12116e-007 +++++++++++++++to 8.12116e-007
Heightened Def Con from 8.14581e-007 ++++to 8.14581e-007
Heightened Def Con from 8.14581e-007 ++++to 8.14581e-007
Heightened Def Con from 8.14581e-007 ++++to 8.14581e-007
Heightened Def Con from 8.14581e-007 ++++to 8.14581e-007
Heightened Def Con from 8.14581e-007 ++++to 8.14581e-007
Heightened Def Con from 8.14581e-007 ++++to 8.14581e-007
Heightened Def Con from 8.14581e-007 ++++to 8.14581e-007
Heightened Def Con from 8.14581e-007 ++++to 8.14581e-007
Heightened Def Con from 8.14581e-007 ++++to 8.14581e-007
Heightened Def Con from 8.14581e-007 ++++to 8.14581e-007
Heightened Def Con from 8.14581e-007 +++++to 8.14581e-007
Heightened Def Con from 8.14581e-007 to 8.14581e-007
Heightened Def Con from 8.14581e-007 +++++to 8.14581e-007
Heightened Def Con from 8.14581e-007 ++++++to 8.14581e-007
Heightened Def Con from 8.28785e-007 to 8.28785e-007
Heightened Def Con from 8.28785e-007 to 8.28785e-007
Heightened Def Con from 8.31247e-007 ++++to 8.31247e-007
Heightened Def Con from 8.31247e-007 +++++to 8.31247e-007
Heightened Def Con from 8.31247e-007 ++++++to 8.31247e-007
Heightened Def Con from 8.45449e-007 to 8.45449e-007
Heightened Def Con from 8.45449e-007 +to 8.45449e-007
Heightened Def Con from 8.62116e-007 ++++++++++++++++++++to 8.62116e-007
Heightened Def Con from 8.62116e-007 +++++++++++++++to 8.62116e-007
Heightened Def Con from 8.62116e-007 +++++++++++++++to 8.62116e-007
Heightened Def Con from 8.62116e-007 +++++++++++++++to 8.62116e-007
Heightened Def Con from 8.62116e-007 +++++++++++++++to 8.62116e-007
Heightened Def Con from 8.72924e-007 to 8.72924e-007
Heightened Def Con from 8.72924e-007 +to 8.72924e-007
Heightened Def Con from 8.72924e-007 +to 8.72924e-007
Heightened Def Con from 8.72924e-007 ++++to 8.72924e-007
Heightened Def Con from 8.72924e-007 ++++to 8.72924e-007
Heightened Def Con from 8.72924e-007 to 8.72924e-007
Heightened Def Con from 8.72924e-007 +to 8.72924e-007
Heightened Def Con from 8.72924e-007 ++++to 8.72924e-007
Heightened Def Con from 8.72924e-007 ++++to 8.72924e-007
Heightened Def Con from 8.72924e-007 ++++to 8.72924e-007
Heightened Def Con from 8.72924e-007 +to 8.72924e-007
Heightened Def Con from 8.72924e-007 ++++to 8.72924e-007
Heightened Def Con from 8.72924e-007 to 8.72924e-007
Heightened Def Con from 8.72924e-007 ++++to 8.72924e-007
Heightened Def Con from 8.72924e-007 to 8.72924e-007
Heightened Def Con from 8.72924e-007 ++++to 8.72924e-007
Heightened Def Con from 8.72924e-007 ++++to 8.72924e-007
Heightened Def Con from 8.72924e-007 ++++to 8.72924e-007
Heightened Def Con from 8.72924e-007 to 8.72924e-007
Heightened Def Con from 8.72924e-007 ++++to 8.72924e-007
Heightened Def Con from 8.72924e-007 to 8.72924e-007
Heightened Def Con from 8.72924e-007 ++++to 8.72924e-007
Heightened Def Con from 8.72924e-007 to 8.72924e-007
Heightened Def Con from 8.72924e-007 ++++to 8.72924e-007
Heightened Def Con from 8.72924e-007 to 8.72924e-007
Heightened Def Con from 8.72924e-007 ++++to 8.72924e-007
Heightened Def Con from 8.72924e-007 to 8.72924e-007
Heightened Def Con from 8.72924e-007 ++++to 8.72924e-007
Heightened Def Con from 8.72924e-007 to 8.72924e-007
Heightened Def Con from 8.72924e-007 ++++to 8.72924e-007
Heightened Def Con from 8.72924e-007 to 8.72924e-007
Heightened Def Con from 8.72924e-007 ++++to 8.72924e-007
Heightened Def Con from 8.72924e-007 to 8.72924e-007
Heightened Def Con from 8.72924e-007 ++++to 8.72924e-007
Heightened Def Con from 8.72924e-007 ++++++to 8.72924e-007
Heightened Def Con from 8.72924e-007 to 8.72924e-007
Heightened Def Con from 8.78782e-007 to 8.78782e-007
Heightened Def Con from 8.78782e-007 to 8.78782e-007
Heightened Def Con from 8.95447e-007 to 8.95447e-007
Heightened Def Con from 8.95447e-007 to 8.95447e-007
Heightened Def Con from 8.95447e-007 +to 8.95447e-007
Heightened Def Con from 8.95447e-007 +to 8.95447e-007
Heightened Def Con from 8.95447e-007 ++to 8.95447e-007
Heightened Def Con from 8.97914e-007 to 8.97914e-007
Heightened Def Con from 8.97914e-007 ++++to 8.97914e-007
Heightened Def Con from 8.97914e-007 ++++to 8.97914e-007
Heightened Def Con from 8.97914e-007 ++++to 8.97914e-007
Heightened Def Con from 8.97914e-007 ++++to 8.97914e-007
Heightened Def Con from 8.97914e-007 ++++to 8.97914e-007
Heightened Def Con from 8.97914e-007 to 8.97914e-007
Heightened Def Con from 8.97914e-007 ++++to 8.97914e-007
Heightened Def Con from 8.97914e-007 ++++++to 8.97914e-007
Heightened Def Con from 9.4545e-007 to 9.4545e-007
Heightened Def Con from 9.4545e-007 to 9.4545e-007
Heightened Def Con from 9.72924e-007 to 9.72924e-007
Heightened Def Con from 9.72924e-007 +to 9.72924e-007
Heightened Def Con from 9.72924e-007 ++to 9.72924e-007
Heightened Def Con from 9.72924e-007 to 9.72924e-007
Heightened Def Con from 9.72924e-007 ++++to 9.72924e-007
Heightened Def Con from 9.72924e-007 to 9.72924e-007
Heightened Def Con from 9.72924e-007 ++++to 9.72924e-007
Heightened Def Con from 9.72924e-007 ++++to 9.72924e-007
Heightened Def Con from 9.72924e-007 to 9.72924e-007
Heightened Def Con from 9.72924e-007 ++++to 9.72924e-007
Heightened Def Con from 9.72924e-007 to 9.72924e-007
Heightened Def Con from 9.72924e-007 ++++to 9.72924e-007
Heightened Def Con from 9.72924e-007 to 9.72924e-007
Heightened Def Con from 9.72924e-007 ++++to 9.72924e-007
Heightened Def Con from 9.72924e-007 to 9.72924e-007
Heightened Def Con from 9.72924e-007 ++++to 9.72924e-007
Heightened Def Con from 9.72924e-007 to 9.72924e-007
Heightened Def Con from 9.72924e-007 ++++to 9.72924e-007
Heightened Def Con from 9.72924e-007 ++++to 9.72924e-007
Heightened Def Con from 9.72924e-007 ++++to 9.72924e-007
Heightened Def Con from 9.72924e-007 to 9.72924e-007
Heightened Def Con from 9.72924e-007 ++++to 9.72924e-007
Heightened Def Con from 9.72924e-007 to 9.72924e-007
Heightened Def Con from 9.72924e-007 ++++to 9.72924e-007
Heightened Def Con from 9.72924e-007 to 9.72924e-007
Heightened Def Con from 9.72924e-007 ++++++to 9.72924e-007
Heightened Def Con from 9.78781e-007 to 9.78781e-007
Heightened Def Con from 9.78781e-007 +to 9.78781e-007
Heightened Def Con from 9.78781e-007 to 9.78781e-007
Heightened Def Con from 9.95449e-007 to 9.95449e-007
Heightened Def Con from 9.95449e-007 to 9.95449e-007
Heightened Def Con from 9.95449e-007 +to 9.95449e-007
Heightened Def Con from 9.95449e-007 to 9.95449e-007
Heightened Def Con from 1.00373e-006 to 1.00373e-006
Heightened Def Con from 1.00373e-006 to 1.00373e-006
Heightened Def Con from 1.00373e-006 to 1.00373e-006
Heightened Def Con from 1.01212e-006 to 1.01212e-006
Heightened Def Con from 1.01212e-006 +to 1.01212e-006
Heightened Def Con from 1.01212e-006 +to 1.01212e-006
Heightened Def Con from 1.01212e-006 +to 1.01212e-006
Heightened Def Con from 1.01212e-006 +++to 1.01212e-006
Heightened Def Con from 1.01212e-006 +++to 1.01212e-006
Heightened Def Con from 1.01212e-006 ++++to 1.01212e-006
Heightened Def Con from 1.01212e-006 ++++to 1.01212e-006
Heightened Def Con from 1.01212e-006 ++++to 1.01212e-006
Heightened Def Con from 1.01212e-006 ++++to 1.01212e-006
Heightened Def Con from 1.01212e-006 ++++to 1.01212e-006
Heightened Def Con from 1.01212e-006 ++++to 1.01212e-006
Heightened Def Con from 1.01212e-006 +++++to 1.01212e-006
Heightened Def Con from 1.01212e-006 +++++to 1.01212e-006
Heightened Def Con from 1.01212e-006 +++++to 1.01212e-006
Heightened Def Con from 1.01212e-006 +++++to 1.01212e-006
Heightened Def Con from 1.01212e-006 +++++to 1.01212e-006
Heightened Def Con from 1.01212e-006 +++++to 1.01212e-006
Heightened Def Con from 1.03124e-006 to 1.03124e-006
Heightened Def Con from 1.04545e-006 to 1.04545e-006
Heightened Def Con from 1.04545e-006 ++++++++++++++++++++to 1.04545e-006
Heightened Def Con from 1.04545e-006 +++++++++++++++to 1.04545e-006
Heightened Def Con from 1.04545e-006 +++++++++++++++to 1.04545e-006
Heightened Def Con from 1.04545e-006 +++++++++++++++to 1.04545e-006
Heightened Def Con from 1.06212e-006 to 1.06212e-006
Heightened Def Con from 1.06212e-006 +to 1.06212e-006
Heightened Def Con from 1.09545e-006 to 1.09545e-006
Heightened Def Con from 1.09545e-006 +to 1.09545e-006
Heightened Def Con from 1.11458e-006 +++++to 1.11458e-006
Heightened Def Con from 1.11458e-006 ++++to 1.11458e-006
Heightened Def Con from 1.11458e-006 ++++to 1.11458e-006
Heightened Def Con from 1.11458e-006 ++++to 1.11458e-006
Heightened Def Con from 1.11458e-006 ++++to 1.11458e-006
Heightened Def Con from 1.11458e-006 to 1.11458e-006
Heightened Def Con from 1.11458e-006 to 1.11458e-006
Heightened Def Con from 1.11458e-006 ++++++to 1.11458e-006
Heightened Def Con from 1.11458e-006 to 1.11458e-006
Heightened Def Con from 1.12292e-006 +to 1.12292e-006
Heightened Def Con from 1.12292e-006 to 1.12292e-006
Heightened Def Con from 1.12292e-006 to 1.12292e-006
Heightened Def Con from 1.12292e-006 +to 1.12292e-006
Heightened Def Con from 1.12292e-006 ++to 1.12292e-006
Heightened Def Con from 1.12292e-006 +to 1.12292e-006
Heightened Def Con from 1.12292e-006 +to 1.12292e-006
Heightened Def Con from 1.12292e-006 +to 1.12292e-006
Heightened Def Con from 1.12292e-006 ++++to 1.12292e-006
Heightened Def Con from 1.12292e-006 +to 1.12292e-006
Heightened Def Con from 1.12292e-006 ++++++to 1.12292e-006
Heightened Def Con from 1.12292e-006 ++++to 1.12292e-006
Heightened Def Con from 1.12292e-006 to 1.12292e-006
Heightened Def Con from 1.12292e-006 to 1.12292e-006
Heightened Def Con from 1.12292e-006 ++++to 1.12292e-006
Heightened Def Con from 1.12292e-006 to 1.12292e-006
Heightened Def Con from 1.12292e-006 ++++to 1.12292e-006
Heightened Def Con from 1.12292e-006 to 1.12292e-006
Heightened Def Con from 1.12292e-006 ++++to 1.12292e-006
Heightened Def Con from 1.12292e-006 ++++to 1.12292e-006
Heightened Def Con from 1.12292e-006 ++++to 1.12292e-006
Heightened Def Con from 1.12292e-006 to 1.12292e-006
Heightened Def Con from 1.12292e-006 ++++to 1.12292e-006
Heightened Def Con from 1.12292e-006 to 1.12292e-006
Heightened Def Con from 1.12292e-006 ++++to 1.12292e-006
Heightened Def Con from 1.12292e-006 to 1.12292e-006
Heightened Def Con from 1.12292e-006 ++++to 1.12292e-006
Heightened Def Con from 1.12292e-006 to 1.12292e-006
Heightened Def Con from 1.12292e-006 ++++to 1.12292e-006
Heightened Def Con from 1.12292e-006 ++++++to 1.12292e-006
Heightened Def Con from 1.14545e-006 to 1.14545e-006
Heightened Def Con from 1.14545e-006 ++++++++++++++++++++to 1.14545e-006
Heightened Def Con from 1.14545e-006 +++++++++++++++to 1.14545e-006
Heightened Def Con from 1.14545e-006 +++++++++++++++to 1.14545e-006
Heightened Def Con from 1.14545e-006 +++++++++++++++to 1.14545e-006
Heightened Def Con from 1.14545e-006 +++++++++++++++to 1.14545e-006
Heightened Def Con from 1.14545e-006 +++++++++++++++to 1.14545e-006
Heightened Def Con from 1.14545e-006 +++++++++++++++to 1.14545e-006
Heightened Def Con from 1.14545e-006 +++++++++++++++to 1.14545e-006
Heightened Def Con from 1.14545e-006 +++++++++++++++to 1.14545e-006
Heightened Def Con from 1.14545e-006 +++++++++++++++to 1.14545e-006
Heightened Def Con from 1.14545e-006 +++++++++++++++to 1.14545e-006
Heightened Def Con from 1.15626e-006 ++++to 1.15626e-006
Heightened Def Con from 1.15626e-006 ++++to 1.15626e-006
Heightened Def Con from 1.15626e-006 ++++to 1.15626e-006
Heightened Def Con from 1.15626e-006 to 1.15626e-006
Heightened Def Con from 1.15626e-006 +++++to 1.15626e-006
Heightened Def Con from 1.15626e-006 to 1.15626e-006
Heightened Def Con from 1.16212e-006 to 1.16212e-006
Heightened Def Con from 1.16212e-006 +to 1.16212e-006
Heightened Def Con from 1.16212e-006 ++to 1.16212e-006
Heightened Def Con from 1.17878e-006 to 1.17878e-006
Heightened Def Con from 1.17878e-006 to 1.17878e-006
Heightened Def Con from 1.17878e-006 to 1.17878e-006
Heightened Def Con from 1.19545e-006 ++++++++++++++++++++to 1.19545e-006
Heightened Def Con from 1.19545e-006 +++++++++++++++to 1.19545e-006
Heightened Def Con from 1.19545e-006 +++++++++++++++to 1.19545e-006
Heightened Def Con from 1.19545e-006 +++++++++++++++to 1.19545e-006
Heightened Def Con from 1.19545e-006 +++++++++++++++to 1.19545e-006
Heightened Def Con from 1.19545e-006 +++++++++++++++to 1.19545e-006
Heightened Def Con from 1.19545e-006 +++++++++++++++to 1.19545e-006
Heightened Def Con from 1.21212e-006 to 1.21212e-006
Heightened Def Con from 1.21212e-006 +to 1.21212e-006
Heightened Def Con from 1.22878e-006 to 1.22878e-006
Heightened Def Con from 1.22878e-006 ++++++++++++++++++++to 1.22878e-006
Heightened Def Con from 1.22878e-006 +++++++++++++++to 1.22878e-006
Heightened Def Con from 1.22878e-006 +++++++++++++++to 1.22878e-006
Heightened Def Con from 1.22878e-006 +++++++++++++++to 1.22878e-006
Heightened Def Con from 1.22878e-006 +++++++++++++++to 1.22878e-006
Heightened Def Con from 1.24545e-006 to 1.24545e-006
Heightened Def Con from 1.24545e-006 ++++++++++++++++++++to 1.24545e-006
Heightened Def Con from 1.24545e-006 +++++++++++++++to 1.24545e-006
Heightened Def Con from 1.24545e-006 +++++++++++++++to 1.24545e-006
Heightened Def Con from 1.24545e-006 +++++++++++++++to 1.24545e-006
Heightened Def Con from 1.24545e-006 +++++++++++++++to 1.24545e-006
Heightened Def Con from 1.24545e-006 +++++++++++++++to 1.24545e-006
Heightened Def Con from 1.24545e-006 +++++++++++++++to 1.24545e-006
Heightened Def Con from 1.26211e-006 to 1.26211e-006
Heightened Def Con from 1.26211e-006 to 1.26211e-006
Heightened Def Con from 1.26211e-006 to 1.26211e-006
Heightened Def Con from 1.27878e-006 to 1.27878e-006
Heightened Def Con from 1.27878e-006 +to 1.27878e-006
Heightened Def Con from 1.27878e-006 to 1.27878e-006
Heightened Def Con from 1.28125e-006 ++++to 1.28125e-006
Heightened Def Con from 1.28125e-006 ++++to 1.28125e-006
Heightened Def Con from 1.28125e-006 ++to 1.28125e-006
Heightened Def Con from 1.28125e-006 to 1.28125e-006
Heightened Def Con from 1.28125e-006 ++++++to 1.28125e-006
Heightened Def Con from 1.29545e-006 ++++++++++++++++++++to 1.29545e-006
Heightened Def Con from 1.29545e-006 +++++++++++++++to 1.29545e-006
Heightened Def Con from 1.29545e-006 +++++++++++++++to 1.29545e-006
Heightened Def Con from 1.29545e-006 +++++++++++++++to 1.29545e-006
Heightened Def Con from 1.29545e-006 +++++++++++++++to 1.29545e-006
Heightened Def Con from 1.29545e-006 +++++++++++++++to 1.29545e-006
Heightened Def Con from 1.29545e-006 +++++++++++++++to 1.29545e-006
Heightened Def Con from 1.32292e-006 ++to 1.32292e-006
Heightened Def Con from 1.32292e-006 ++to 1.32292e-006
Heightened Def Con from 1.32292e-006 to 1.32292e-006
Heightened Def Con from 1.32292e-006 ++to 1.32292e-006
Heightened Def Con from 1.32292e-006 ++++to 1.32292e-006
Heightened Def Con from 1.32292e-006 to 1.32292e-006
Heightened Def Con from 1.32292e-006 to 1.32292e-006
Heightened Def Con from 1.32292e-006 ++++to 1.32292e-006
Heightened Def Con from 1.32292e-006 to 1.32292e-006
Heightened Def Con from 1.32292e-006 +to 1.32292e-006
Heightened Def Con from 1.32292e-006 +++++to 1.32292e-006
Heightened Def Con from 1.32292e-006 to 1.32292e-006
Heightened Def Con from 1.33124e-006 to 1.33124e-006
Heightened Def Con from 1.33124e-006 to 1.33124e-006
Heightened Def Con from 1.33124e-006 to 1.33124e-006
Heightened Def Con from 1.33124e-006 ++++to 1.33124e-006
Heightened Def Con from 1.33124e-006 ++++to 1.33124e-006
Heightened Def Con from 1.33124e-006 ++++++to 1.33124e-006
Heightened Def Con from 1.34791e-006 to 1.34791e-006
Heightened Def Con from 1.35626e-006 to 1.35626e-006
Heightened Def Con from 1.35626e-006 ++++to 1.35626e-006
Heightened Def Con from 1.35626e-006 to 1.35626e-006
Heightened Def Con from 1.35626e-006 to 1.35626e-006
Heightened Def Con from 1.35626e-006 +to 1.35626e-006
Heightened Def Con from 1.35626e-006 ++to 1.35626e-006
Heightened Def Con from 1.35626e-006 +to 1.35626e-006
Heightened Def Con from 1.35626e-006 +to 1.35626e-006
Heightened Def Con from 1.35626e-006 +to 1.35626e-006
Heightened Def Con from 1.35626e-006 +++++to 1.35626e-006
Heightened Def Con from 1.35626e-006 to 1.35626e-006
Heightened Def Con from 1.38124e-006 to 1.38124e-006
Heightened Def Con from 1.39545e-006 ++++++++++++++++++++to 1.39545e-006
Heightened Def Con from 1.39545e-006 +++++++++++++++to 1.39545e-006
Heightened Def Con from 1.39545e-006 +++++++++++++++to 1.39545e-006
Heightened Def Con from 1.39545e-006 +++++++++++++++to 1.39545e-006
Heightened Def Con from 1.39545e-006 +++++++++++++++to 1.39545e-006
Heightened Def Con from 1.39545e-006 +++++++++++++++to 1.39545e-006
Heightened Def Con from 1.39545e-006 +++++++++++++++to 1.39545e-006
Heightened Def Con from 1.39545e-006 +++++++++++++++to 1.39545e-006
Heightened Def Con from 1.39545e-006 +++++++++++++++to 1.39545e-006
Heightened Def Con from 1.39545e-006 +++++++++++++++to 1.39545e-006
Heightened Def Con from 1.39545e-006 +++++++++++++++to 1.39545e-006
Heightened Def Con from 1.39545e-006 +++++++++++++++to 1.39545e-006
Heightened Def Con from 1.40626e-006 to 1.40626e-006
Heightened Def Con from 1.40626e-006 ++to 1.40626e-006
Heightened Def Con from 1.40626e-006 ++++to 1.40626e-006
Heightened Def Con from 1.40626e-006 ++++to 1.40626e-006
Heightened Def Con from 1.40626e-006 +to 1.40626e-006
Heightened Def Con from 1.40626e-006 +to 1.40626e-006
Heightened Def Con from 1.40626e-006 +++++to 1.40626e-006
Heightened Def Con from 1.40626e-006 ++++to 1.40626e-006
Heightened Def Con from 1.40626e-006 to 1.40626e-006
Heightened Def Con from 1.40626e-006 to 1.40626e-006
Heightened Def Con from 1.40626e-006 ++++to 1.40626e-006
Heightened Def Con from 1.40626e-006 ++++to 1.40626e-006
Heightened Def Con from 1.40626e-006 to 1.40626e-006
Heightened Def Con from 1.40626e-006 ++++++to 1.40626e-006
Heightened Def Con from 1.41211e-006 to 1.41211e-006
Heightened Def Con from 1.41211e-006 +to 1.41211e-006
Heightened Def Con from 1.41211e-006 to 1.41211e-006
Heightened Def Con from 1.42878e-006 to 1.42878e-006
Heightened Def Con from 1.42878e-006 to 1.42878e-006
Heightened Def Con from 1.43125e-006 to 1.43125e-006
Heightened Def Con from 1.43125e-006 ++++to 1.43125e-006
Heightened Def Con from 1.43125e-006 +++++to 1.43125e-006
Heightened Def Con from 1.43125e-006 +to 1.43125e-006
Heightened Def Con from 1.43125e-006 to 1.43125e-006
Heightened Def Con from 1.43125e-006 to 1.43125e-006
Heightened Def Con from 1.43125e-006 ++++to 1.43125e-006
Heightened Def Con from 1.43125e-006 ++++++to 1.43125e-006
Heightened Def Con from 1.46212e-006 to 1.46212e-006
Heightened Def Con from 1.46212e-006 ++to 1.46212e-006
Heightened Def Con from 1.46212e-006 +++to 1.46212e-006
Heightened Def Con from 1.46212e-006 +++to 1.46212e-006
Heightened Def Con from 1.46212e-006 ++++to 1.46212e-006
Heightened Def Con from 1.46212e-006 ++++to 1.46212e-006
Heightened Def Con from 1.46212e-006 ++++to 1.46212e-006
Heightened Def Con from 1.46212e-006 ++++to 1.46212e-006
Heightened Def Con from 1.46212e-006 ++++to 1.46212e-006
Heightened Def Con from 1.46212e-006 +++++to 1.46212e-006
Heightened Def Con from 1.46212e-006 +++++to 1.46212e-006
Heightened Def Con from 1.47878e-006 to 1.47878e-006
Heightened Def Con from 1.47878e-006 to 1.47878e-006
Heightened Def Con from 1.49791e-006 to 1.49791e-006
Heightened Def Con from 1.49791e-006 ++++to 1.49791e-006
Heightened Def Con from 1.49791e-006 to 1.49791e-006
Heightened Def Con from 1.49791e-006 to 1.49791e-006
Heightened Def Con from 1.49791e-006 +++++to 1.49791e-006
Heightened Def Con from 1.49791e-006 ++++to 1.49791e-006
Heightened Def Con from 1.49791e-006 ++++to 1.49791e-006
Heightened Def Con from 1.49791e-006 to 1.49791e-006
Heightened Def Con from 1.49791e-006 ++++to 1.49791e-006
Heightened Def Con from 1.49791e-006 to 1.49791e-006
Heightened Def Con from 1.49791e-006 ++++to 1.49791e-006
Heightened Def Con from 1.49791e-006 ++++to 1.49791e-006
Heightened Def Con from 1.49791e-006 +++++to 1.49791e-006
Heightened Def Con from 1.49791e-006 ++++to 1.49791e-006
Heightened Def Con from 1.49791e-006 to 1.49791e-006
Heightened Def Con from 1.49791e-006 ++++to 1.49791e-006
Heightened Def Con from 1.49791e-006 ++++to 1.49791e-006
Heightened Def Con from 1.49791e-006 ++++++to 1.49791e-006
Heightened Def Con from 1.52292e-006 to 1.52292e-006
Heightened Def Con from 1.52292e-006 ++to 1.52292e-006
Heightened Def Con from 1.52292e-006 to 1.52292e-006
Heightened Def Con from 1.52292e-006 to 1.52292e-006
Heightened Def Con from 1.52292e-006 ++++to 1.52292e-006
Heightened Def Con from 1.52292e-006 ++++to 1.52292e-006
Heightened Def Con from 1.52292e-006 ++++to 1.52292e-006
Heightened Def Con from 1.52292e-006 to 1.52292e-006
Heightened Def Con from 1.52292e-006 ++++to 1.52292e-006
Heightened Def Con from 1.52292e-006 to 1.52292e-006
Heightened Def Con from 1.52292e-006 ++++to 1.52292e-006
Heightened Def Con from 1.52292e-006 to 1.52292e-006
Heightened Def Con from 1.52292e-006 ++++to 1.52292e-006
Heightened Def Con from 1.52292e-006 to 1.52292e-006
Heightened Def Con from 1.52292e-006 ++++to 1.52292e-006
Heightened Def Con from 1.52292e-006 to 1.52292e-006
Heightened Def Con from 1.52292e-006 ++++to 1.52292e-006
Heightened Def Con from 1.52292e-006 to 1.52292e-006
Heightened Def Con from 1.52292e-006 ++++to 1.52292e-006
Heightened Def Con from 1.52292e-006 +++++to 1.52292e-006
Heightened Def Con from 1.52292e-006 to 1.52292e-006
Heightened Def Con from 1.52878e-006 to 1.52878e-006
Heightened Def Con from 1.52878e-006 ++to 1.52878e-006
Heightened Def Con from 1.52878e-006 ++to 1.52878e-006
Heightened Def Con from 1.52878e-006 +++to 1.52878e-006
Heightened Def Con from 1.52878e-006 +++to 1.52878e-006
Heightened Def Con from 1.52878e-006 ++++to 1.52878e-006
Heightened Def Con from 1.52878e-006 ++++to 1.52878e-006
Heightened Def Con from 1.52878e-006 ++++to 1.52878e-006
Heightened Def Con from 1.52878e-006 ++++to 1.52878e-006
Heightened Def Con from 1.52878e-006 ++++to 1.52878e-006
Heightened Def Con from 1.52878e-006 ++++to 1.52878e-006
Heightened Def Con from 1.52878e-006 +++++to 1.52878e-006
Heightened Def Con from 1.52878e-006 +++++to 1.52878e-006
Heightened Def Con from 1.52878e-006 ++++++to 1.52878e-006
Heightened Def Con from 1.52878e-006 ++++++to 1.52878e-006
Heightened Def Con from 1.52878e-006 ++++++to 1.52878e-006
Heightened Def Con from 1.52878e-006 ++++++to 1.52878e-006
Heightened Def Con from 1.52878e-006 ++++++to 1.52878e-006
Heightened Def Con from 1.52878e-006 ++++++to 1.52878e-006
Heightened Def Con from 1.52878e-006 +++++++to 1.52878e-006
Heightened Def Con from 1.52878e-006 +++++++to 1.52878e-006
Heightened Def Con from 1.52878e-006 +++++++to 1.52878e-006
Heightened Def Con from 1.52878e-006 +++++++to 1.52878e-006
Heightened Def Con from 1.52878e-006 +++++++to 1.52878e-006
Heightened Def Con from 1.52878e-006 +++++++to 1.52878e-006
Heightened Def Con from 1.52878e-006 +++++++to 1.52878e-006
Heightened Def Con from 1.52878e-006 +++++++to 1.52878e-006
Heightened Def Con from 1.52878e-006 +++++++to 1.52878e-006
Heightened Def Con from 1.52878e-006 ++++++++to 1.52878e-006
Heightened Def Con from 1.52878e-006 ++++++++to 1.52878e-006
Heightened Def Con from 1.52878e-006 ++++++++to 1.52878e-006
Heightened Def Con from 1.52878e-006 ++++++++to 1.52878e-006
Heightened Def Con from 1.52878e-006 ++++++++to 1.52878e-006
Heightened Def Con from 1.52878e-006 ++++++++to 1.52878e-006
Heightened Def Con from 1.52878e-006 to 1.52878e-006
Heightened Def Con from 1.54545e-006 ++++++++++++++++++++to 1.54545e-006
Heightened Def Con from 1.54545e-006 +++++++++++++++to 1.54545e-006
Heightened Def Con from 1.54545e-006 +++++++++++++++to 1.54545e-006
Heightened Def Con from 1.54545e-006 +++++++++++++++to 1.54545e-006
Heightened Def Con from 1.54545e-006 +++++++++++++++to 1.54545e-006
Heightened Def Con from 1.54545e-006 +++++++++++++++to 1.54545e-006
Heightened Def Con from 1.56212e-006 to 1.56212e-006
Heightened Def Con from 1.56212e-006 to 1.56212e-006
Heightened Def Con from 1.56212e-006 to 1.56212e-006
Heightened Def Con from 1.58124e-006 ++++to 1.58124e-006
Heightened Def Con from 1.58124e-006 to 1.58124e-006
Heightened Def Con from 1.58124e-006 to 1.58124e-006
Heightened Def Con from 1.58124e-006 ++++to 1.58124e-006
Heightened Def Con from 1.58124e-006 ++++to 1.58124e-006
Heightened Def Con from 1.58124e-006 +++++to 1.58124e-006
Heightened Def Con from 1.58124e-006 to 1.58124e-006
Heightened Def Con from 1.60626e-006 to 1.60626e-006
Heightened Def Con from 1.60626e-006 to 1.60626e-006
Heightened Def Con from 1.60626e-006 to 1.60626e-006
Heightened Def Con from 1.60626e-006 +to 1.60626e-006
Heightened Def Con from 1.60626e-006 +to 1.60626e-006
Heightened Def Con from 1.60626e-006 ++++to 1.60626e-006
Heightened Def Con from 1.60626e-006 to 1.60626e-006
Heightened Def Con from 1.60626e-006 ++++to 1.60626e-006
Heightened Def Con from 1.60626e-006 ++++to 1.60626e-006
Heightened Def Con from 1.60626e-006 ++++to 1.60626e-006
Heightened Def Con from 1.60626e-006 to 1.60626e-006
Heightened Def Con from 1.60626e-006 ++++to 1.60626e-006
Heightened Def Con from 1.60626e-006 ++to 1.60626e-006
Heightened Def Con from 1.60626e-006 ++++to 1.60626e-006
Heightened Def Con from 1.60626e-006 to 1.60626e-006
Heightened Def Con from 1.60626e-006 ++++to 1.60626e-006
Heightened Def Con from 1.60626e-006 to 1.60626e-006
Heightened Def Con from 1.60626e-006 to 1.60626e-006
Heightened Def Con from 1.60626e-006 to 1.60626e-006
Heightened Def Con from 1.60626e-006 ++++to 1.60626e-006
Heightened Def Con from 1.60626e-006 to 1.60626e-006
Heightened Def Con from 1.60626e-006 to 1.60626e-006
Heightened Def Con from 1.60626e-006 ++++to 1.60626e-006
Heightened Def Con from 1.60626e-006 ++++to 1.60626e-006
Heightened Def Con from 1.60626e-006 ++++to 1.60626e-006
Heightened Def Con from 1.60626e-006 to 1.60626e-006
Heightened Def Con from 1.60626e-006 ++++to 1.60626e-006
Heightened Def Con from 1.60626e-006 ++++to 1.60626e-006
Heightened Def Con from 1.60626e-006 to 1.60626e-006
Heightened Def Con from 1.60626e-006 ++++to 1.60626e-006
Heightened Def Con from 1.60626e-006 ++++++to 1.60626e-006
Heightened Def Con from 1.61211e-006 to 1.61211e-006
Heightened Def Con from 1.61211e-006 ++to 1.61211e-006

Date: Sun Jun 15 23:18:54 2025
Total elapsed time: 8.875 seconds.

tnom = 27
temp = 27
method = trap
totiter = 866053
traniter = 856955
tranpoints = 102690
accept = 38884
rejected = 68881
matrix size = 211
fillins = 310
solver = Normal
Thread vector: 6.4/4.4[4] 2.3/2.7[1] 0.9/2.0[1] 0.4/1.5[1]  2592/500
Matrix Compiler1: 24.86 KB object code size  3.6/1.4/[1.3]
Matrix Compiler2: 21.07 KB object code size  1.4/1.5/[0.9]

