Circuit: * C:\users\ostoja\Desktop\Elektronika\diff_sonde\DS100M08KV\simulacije\ac_analysis_wider_output.asc

WARNING: Node N002 is floating.
WARNING: Node N003 is floating.
WARNING: Node N004 is floating.
WARNING: Node N030 is floating.
WARNING: Node N031 is floating.
WARNING: Node N032 is floating.

WARNING: Less than two connections to node 2.5V.  This node is used by V1.
WARNING: Less than two connections to node -2.5V.  This node is used by V2.
WARNING: Less than two connections to node 9V.  This node is used by V4.
WARNING: Less than two connections to node -9V.  This node is used by V6.
Direct Newton iteration failed to find .op point.  (Use ".option noopiter" to skip.)
Starting Gmin stepping
Gmin = 10
vernier = 0.5
Gmin = 1.67772
vernier = 0.25
vernier = 0.125
Gmin = 1.24103
vernier = 0.0625
vernier = 0.03125
Gmin = 1.14839
vernier = 0.0416667
vernier = 0.0208333
Gmin = 1.09313
vernier = 0.0277778
vernier = 0.0138889
vernier = 0.0185185
vernier = 0.00925925
Gmin = 1.07186
vernier = 0.0123457
vernier = 0.00617283
Gmin = 1.05546
vernier = 0.00823044
vernier = 0.00411522
vernier = 0.00548696
Gmin = 1.04556
vernier = 0.00274348
vernier = 0.00365797
Gmin = 1.03913
vernier = 0.0048773
vernier = 0.00243865
Gmin = 1.03313
vernier = 0.00325153
vernier = 0.00162576
vernier = 0.00216769
Gmin = 1.02936
vernier = 0.00108384
vernier = 0.00144512
Gmin = 1.02648
vernier = 0.00192683
vernier = 0.000963415
Gmin = 1.02389
vernier = 0.00128455
vernier = 0.000642277
Gmin = 1.02159
vernier = 0.000856369
Gmin = 1.01963
vernier = 0.00114182
vernier = 0.000570912
vernier = 0.000761216
Gmin = 1.01832
vernier = 0.00101495
vernier = 0.000507477
Gmin = 1.01709
vernier = 0.000676636
vernier = 0.000902182
vernier = 0.000451091
Gmin = 1.01583
vernier = 0.000601454
vernier = 0.000451091
Gmin = 1.01472
vernier = 0.000601454
vernier = 0.000451091
Gmin = 1.01381
vernier = 0.000601454
vernier = 0.000451091
vernier = 0.000601454
Gmin = 1.01286
vernier = 0.00045109
Gmin = 0
Gmin stepping failed

Starting source stepping with srcstepmethod=0
Source Step = 3.0303%
Source Step = 33.3333%
Source Step = 63.6364%
Source Step = 93.9394%
Source stepping succeeded in finding the operating point.


Date: Sun Oct 19 21:30:33 2025
Total elapsed time: 1.241 seconds.

tnom = 27
temp = 27
method = trap
totiter = 14516
traniter = 0
tranpoints = 0
accept = 0
rejected = 0
matrix size = 170
fillins = 192
solver = Normal
Matrix Compiler1:     855 opcodes
Matrix Compiler2: 17.50 KB object code size  1.0/1.0/[0.7]

