Circuit: * C:\users\ostoja\Desktop\Elektronika\diff_sonde\DS100M08KV\simulacije\ac_analysis.asc

WARNING: Node N002 is floating.
WARNING: Node N003 is floating.
WARNING: Node N004 is floating.
WARNING: Node N020 is floating.
WARNING: Node N021 is floating.
WARNING: Node N022 is floating.

WARNING: Less than two connections to node 2.5V.  This node is used by V1.
WARNING: Less than two connections to node -2.5V.  This node is used by V2.
WARNING: Less than two connections to node 9V.  This node is used by V4.
WARNING: Less than two connections to node -9V.  This node is used by V6.
Direct Newton iteration for .op point succeeded.

Date: Sun Oct 19 11:42:23 2025
Total elapsed time: 0.060 seconds.

tnom = 27
temp = 27
method = trap
totiter = 49
traniter = 0
tranpoints = 0
accept = 0
rejected = 0
matrix size = 97
fillins = 51
solver = Normal
Matrix Compiler1:     374 opcodes
Matrix Compiler2:     696 opcodes
