Circuit: * C:\users\ostoja\Desktop\Elektronika\diff_sonde\DS100M08KV\simulacije\ac_analysis_bjt_buffer.asc

WARNING: Node N002 is floating.
WARNING: Node N003 is floating.
WARNING: Node N004 is floating.
WARNING: Node N023 is floating.
WARNING: Node N024 is floating.
WARNING: Node N025 is floating.

WARNING: Less than two connections to node 2.5V.  This node is used by V1.
WARNING: Less than two connections to node -2.5V.  This node is used by V2.
WARNING: Less than two connections to node 9V.  This node is used by V4.
WARNING: Less than two connections to node -9V.  This node is used by V6.
Direct Newton iteration failed to find .op point.  (Use ".option noopiter" to skip.)
Starting Gmin stepping
Gmin = 10
Gmin = 1.07374
vernier = 0.5
vernier = 0.25
vernier = 0.125
vernier = 0.0625
vernier = 0.03125
Gmin = 1.0412
vernier = 0.015625
vernier = 0.0078125
Gmin = 1.0132
vernier = 0.00390625
vernier = 0.00195313
Gmin = 1.00827
vernier = 0.00260417
vernier = 0.00130208
Gmin = 1.00515
vernier = 0.000651042
vernier = 0.000868055
vernier = 0.000434028
Gmin = 1.00434
vernier = 0.000578703
vernier = 0.000434027
Gmin = 1.00339
Gmin = 0
Gmin stepping failed

Starting source stepping with srcstepmethod=0
Source Step = 3.0303%
Source Step = 33.3333%
Source Step = 63.6364%
Source Step = 93.9394%
Source stepping succeeded in finding the operating point.


Date: Sun Oct 19 11:58:50 2025
Total elapsed time: 0.393 seconds.

tnom = 27
temp = 27
method = trap
totiter = 5035
traniter = 0
tranpoints = 0
accept = 0
rejected = 0
matrix size = 110
fillins = 93
solver = Normal
Matrix Compiler1:     505 opcodes
Matrix Compiler2: 10.79 KB object code size  0.6/0.7/[0.5]

