Circuit: * C:\users\ostoja\Desktop\Elektronika\diff_sonde\DS100M08KV\simulacije\buffering_current.asc

WARNING: Node N002 is floating.
WARNING: Node N003 is floating.
WARNING: Node N004 is floating.
WARNING: Node N025 is floating.
WARNING: Node N026 is floating.
WARNING: Node N027 is floating.

WARNING: Less than two connections to node 2.5V.  This node is used by V1.
WARNING: Less than two connections to node -2.5V.  This node is used by V2.
WARNING: Less than two connections to node 9V.  This node is used by V4.
WARNING: Less than two connections to node -9V.  This node is used by V6.
Direct Newton iteration failed to find .op point.  (Use ".option noopiter" to skip.)
Starting Gmin stepping
Gmin = 10
Gmin = 1.07374
vernier = 0.5
vernier = 0.25
vernier = 0.125
vernier = 0.0625
vernier = 0.03125
Gmin = 1.0412
vernier = 0.015625
vernier = 0.0078125
Gmin = 1.0132
vernier = 0.00390625
vernier = 0.00195313
Gmin = 1.00827
vernier = 0.00260417
vernier = 0.00130208
Gmin = 1.00515
vernier = 0.000651042
vernier = 0.000868055
vernier = 0.000434028
Gmin = 1.00434
vernier = 0.000578703
vernier = 0.000434027
Gmin = 1.00339
Gmin = 0
Gmin stepping failed

Starting source stepping with srcstepmethod=0
Source Step = 3.0303%
Source Step = 33.3333%
Source Step = 63.6364%
Source Step = 93.9394%
Source stepping succeeded in finding the operating point.

Heightened Def Con from 1.00724e-008 to 1.00724e-008
Heightened Def Con from 4.48218e-008 +to 4.48218e-008
Heightened Def Con from 4.48218e-008 +to 4.48218e-008
Heightened Def Con from 4.48218e-008 +++++to 4.48218e-008
Heightened Def Con from 4.48218e-008 +++++to 4.48218e-008
Heightened Def Con from 4.48218e-008 ++++to 4.48218e-008
Heightened Def Con from 7.98209e-008 ++++to 7.98209e-008
Heightened Def Con from 7.98209e-008 to 7.98209e-008
Heightened Def Con from 1.49819e-007 to 1.49819e-007
Heightened Def Con from 3.51707e-007 to 3.51707e-007
Heightened Def Con from 4.34815e-007 +to 4.34815e-007
Heightened Def Con from 4.3982e-007 to 4.3982e-007
Heightened Def Con from 4.3982e-007 +to 4.3982e-007
Heightened Def Con from 4.3982e-007 to 4.3982e-007
Heightened Def Con from 4.61705e-007 to 4.61705e-007
Heightened Def Con from 4.61705e-007 to 4.61705e-007
Heightened Def Con from 5.61706e-007 to 5.61706e-007
Heightened Def Con from 5.61706e-007 to 5.61706e-007
Heightened Def Con from 5.61706e-007 to 5.61706e-007
Heightened Def Con from 5.61706e-007 to 5.61706e-007
Heightened Def Con from 5.71704e-007 +to 5.71704e-007
Heightened Def Con from 5.71704e-007 +to 5.71704e-007
Heightened Def Con from 5.71704e-007 to 5.71704e-007
Heightened Def Con from 5.71704e-007 +to 5.71704e-007
Heightened Def Con from 5.71704e-007 +to 5.71704e-007
Heightened Def Con from 5.71704e-007 +to 5.71704e-007
Heightened Def Con from 5.71704e-007 +to 5.71704e-007
Heightened Def Con from 5.71704e-007 +to 5.71704e-007
Heightened Def Con from 5.71704e-007 ++to 5.71704e-007
Heightened Def Con from 5.71704e-007 ++++++++to 5.71704e-007
Heightened Def Con from 5.71704e-007 to 5.71704e-007
Heightened Def Con from 5.74811e-007 to 5.74811e-007
Heightened Def Con from 6.1982e-007 +to 6.1982e-007
Heightened Def Con from 6.1982e-007 to 6.1982e-007
Heightened Def Con from 6.39821e-007 to 6.39821e-007
Heightened Def Con from 7.81707e-007 to 7.81707e-007
Heightened Def Con from 7.81707e-007 to 7.81707e-007
Heightened Def Con from 7.81707e-007 +to 7.81707e-007
Heightened Def Con from 7.81707e-007 +++to 7.81707e-007
Heightened Def Con from 7.81707e-007 +to 7.81707e-007
Heightened Def Con from 7.81707e-007 ++to 7.81707e-007
Heightened Def Con from 7.81707e-007 to 7.81707e-007
Heightened Def Con from 7.81707e-007 +to 7.81707e-007
Heightened Def Con from 7.81707e-007 ++to 7.81707e-007
Heightened Def Con from 7.81707e-007 +to 7.81707e-007
Heightened Def Con from 7.81707e-007 +to 7.81707e-007
Heightened Def Con from 7.81707e-007 ++to 7.81707e-007
Heightened Def Con from 7.81707e-007 +to 7.81707e-007
Heightened Def Con from 7.81707e-007 +to 7.81707e-007
Heightened Def Con from 7.81707e-007 ++to 7.81707e-007
Heightened Def Con from 7.81707e-007 +to 7.81707e-007
Heightened Def Con from 7.81707e-007 +to 7.81707e-007
Heightened Def Con from 7.81707e-007 +to 7.81707e-007
Heightened Def Con from 7.81707e-007 ++++to 7.81707e-007
Heightened Def Con from 7.81707e-007 +to 7.81707e-007
Heightened Def Con from 7.81707e-007 +to 7.81707e-007
Heightened Def Con from 7.81707e-007 +++to 7.81707e-007
Heightened Def Con from 7.81707e-007 +to 7.81707e-007
Heightened Def Con from 7.81707e-007 ++++to 7.81707e-007
Heightened Def Con from 7.81707e-007 +to 7.81707e-007
Heightened Def Con from 7.81707e-007 +to 7.81707e-007
Heightened Def Con from 7.81707e-007 +to 7.81707e-007
Heightened Def Con from 7.81707e-007 +to 7.81707e-007
Heightened Def Con from 7.81707e-007 +++to 7.81707e-007
Heightened Def Con from 7.81707e-007 +to 7.81707e-007
Heightened Def Con from 7.81707e-007 ++++to 7.81707e-007
Heightened Def Con from 7.81707e-007 +to 7.81707e-007
Heightened Def Con from 7.81707e-007 +to 7.81707e-007
Heightened Def Con from 7.81707e-007 +to 7.81707e-007
Heightened Def Con from 7.81707e-007 +to 7.81707e-007
Heightened Def Con from 7.81707e-007 +++to 7.81707e-007
Heightened Def Con from 7.81707e-007 +to 7.81707e-007
Heightened Def Con from 7.81707e-007 ++++to 7.81707e-007
Heightened Def Con from 7.81707e-007 +to 7.81707e-007
Heightened Def Con from 7.81707e-007 +to 7.81707e-007
Heightened Def Con from 7.81707e-007 +to 7.81707e-007
Heightened Def Con from 7.81707e-007 +to 7.81707e-007
Heightened Def Con from 7.81707e-007 +++to 7.81707e-007
Heightened Def Con from 7.81707e-007 +to 7.81707e-007
Heightened Def Con from 7.81707e-007 ++++to 7.81707e-007
Heightened Def Con from 7.81707e-007 +to 7.81707e-007
Heightened Def Con from 7.81707e-007 +++++++++to 7.81707e-007
Heightened Def Con from 1.04171e-006 to 1.04171e-006
Heightened Def Con from 1.04171e-006 to 1.04171e-006
Heightened Def Con from 1.04171e-006 +to 1.04171e-006
Heightened Def Con from 1.04171e-006 ++to 1.04171e-006
Heightened Def Con from 1.04171e-006 +to 1.04171e-006
Heightened Def Con from 1.04171e-006 +++to 1.04171e-006
Heightened Def Con from 1.04171e-006 ++to 1.04171e-006
Heightened Def Con from 1.04171e-006 +to 1.04171e-006
Heightened Def Con from 1.04171e-006 +to 1.04171e-006
Heightened Def Con from 1.04171e-006 +to 1.04171e-006
Heightened Def Con from 1.04171e-006 +++to 1.04171e-006
Heightened Def Con from 1.04171e-006 +to 1.04171e-006
Heightened Def Con from 1.04171e-006 +++to 1.04171e-006
Heightened Def Con from 1.04171e-006 +++to 1.04171e-006
Heightened Def Con from 1.04171e-006 +to 1.04171e-006
Heightened Def Con from 1.04171e-006 +to 1.04171e-006
Heightened Def Con from 1.04171e-006 +to 1.04171e-006
Heightened Def Con from 1.04171e-006 +to 1.04171e-006
Heightened Def Con from 1.04171e-006 +++to 1.04171e-006
Heightened Def Con from 1.04171e-006 ++++++++to 1.04171e-006
Heightened Def Con from 1.13481e-006 to 1.13481e-006
Heightened Def Con from 1.24171e-006 to 1.24171e-006
Heightened Def Con from 1.24171e-006 to 1.24171e-006
Heightened Def Con from 1.24171e-006 to 1.24171e-006
Heightened Def Con from 1.24983e-006 +to 1.24983e-006
Heightened Def Con from 1.24983e-006 +to 1.24983e-006
Heightened Def Con from 1.24983e-006 +to 1.24983e-006
Heightened Def Con from 1.24983e-006 +++to 1.24983e-006
Heightened Def Con from 1.27171e-006 to 1.27171e-006
Heightened Def Con from 1.27171e-006 to 1.27171e-006
Heightened Def Con from 1.39982e-006 +to 1.39982e-006
Heightened Def Con from 1.39982e-006 +to 1.39982e-006
Heightened Def Con from 1.39982e-006 to 1.39982e-006
Heightened Def Con from 1.43982e-006 ++to 1.43982e-006
Heightened Def Con from 1.43982e-006 ++++to 1.43982e-006
Heightened Def Con from 1.43982e-006 to 1.43982e-006
Heightened Def Con from 1.45982e-006 to 1.45982e-006
Heightened Def Con from 1.45982e-006 to 1.45982e-006
Heightened Def Con from 1.49982e-006 to 1.49982e-006
Heightened Def Con from 1.64982e-006 +++to 1.64982e-006
Heightened Def Con from 1.70982e-006 +to 1.70982e-006
Heightened Def Con from 1.70982e-006 +to 1.70982e-006
Heightened Def Con from 1.71481e-006 ++++to 1.71481e-006
Heightened Def Con from 1.99171e-006 +to 1.99171e-006
Heightened Def Con from 1.99171e-006 to 1.99171e-006
Heightened Def Con from 1.99171e-006 +to 1.99171e-006
Heightened Def Con from 1.99171e-006 +to 1.99171e-006
Heightened Def Con from 1.99171e-006 +to 1.99171e-006
Heightened Def Con from 1.99171e-006 +to 1.99171e-006
Heightened Def Con from 1.99171e-006 +to 1.99171e-006
Heightened Def Con from 1.99171e-006 ++to 1.99171e-006
Heightened Def Con from 1.99171e-006 +to 1.99171e-006
Heightened Def Con from 1.99171e-006 +to 1.99171e-006
Heightened Def Con from 1.99171e-006 +to 1.99171e-006
Heightened Def Con from 1.99171e-006 +to 1.99171e-006
Heightened Def Con from 1.99171e-006 +to 1.99171e-006
Heightened Def Con from 1.99171e-006 +to 1.99171e-006
Heightened Def Con from 1.99171e-006 +to 1.99171e-006
Heightened Def Con from 1.99171e-006 +to 1.99171e-006
Heightened Def Con from 1.99171e-006 +to 1.99171e-006
Heightened Def Con from 1.99171e-006 +++to 1.99171e-006
Heightened Def Con from 1.99171e-006 +to 1.99171e-006
Heightened Def Con from 1.99171e-006 +to 1.99171e-006
Heightened Def Con from 1.99171e-006 ++++to 1.99171e-006
Heightened Def Con from 1.99171e-006 +to 1.99171e-006
Heightened Def Con from 1.99171e-006 +to 1.99171e-006
Heightened Def Con from 1.99171e-006 +to 1.99171e-006
Heightened Def Con from 1.99171e-006 +to 1.99171e-006
Heightened Def Con from 1.99171e-006 +++to 1.99171e-006
Heightened Def Con from 1.99171e-006 ++to 1.99171e-006
Heightened Def Con from 1.99171e-006 +to 1.99171e-006
Heightened Def Con from 1.99171e-006 ++++to 1.99171e-006
Heightened Def Con from 1.99171e-006 +to 1.99171e-006
Heightened Def Con from 1.99171e-006 +to 1.99171e-006
Heightened Def Con from 1.99171e-006 +to 1.99171e-006
Heightened Def Con from 1.99171e-006 +to 1.99171e-006
Heightened Def Con from 1.99171e-006 +++to 1.99171e-006
Heightened Def Con from 1.99171e-006 ++++++++to 1.99171e-006
Heightened Def Con from 2.02982e-006 +++++to 2.02982e-006
Heightened Def Con from 2.07982e-006 to 2.07982e-006
Heightened Def Con from 2.13982e-006 to 2.13982e-006
Heightened Def Con from 2.13982e-006 to 2.13982e-006
Heightened Def Con from 2.46982e-006 to 2.46982e-006
Heightened Def Con from 2.4817e-006 to 2.4817e-006
Heightened Def Con from 2.4817e-006 to 2.4817e-006
Heightened Def Con from 2.51982e-006 to 2.51982e-006
Heightened Def Con from 2.65665e-006 to 2.65665e-006
Heightened Def Con from 2.65665e-006 to 2.65665e-006
Heightened Def Con from 2.65665e-006 +to 2.65665e-006
Heightened Def Con from 2.65665e-006 +to 2.65665e-006
Heightened Def Con from 2.65665e-006 +++to 2.65665e-006
Heightened Def Con from 2.65665e-006 ++to 2.65665e-006
Heightened Def Con from 2.65665e-006 +to 2.65665e-006
Heightened Def Con from 2.65665e-006 ++to 2.65665e-006
Heightened Def Con from 2.65665e-006 ++++++++to 2.65665e-006
Heightened Def Con from 2.83982e-006 to 2.83982e-006
Heightened Def Con from 3.14982e-006 to 3.14982e-006
Heightened Def Con from 3.21171e-006 to 3.21171e-006
Heightened Def Con from 3.21171e-006 to 3.21171e-006
Heightened Def Con from 3.25171e-006 +to 3.25171e-006
Heightened Def Con from 3.25171e-006 +to 3.25171e-006
Heightened Def Con from 3.25171e-006 +to 3.25171e-006
Heightened Def Con from 3.25171e-006 ++to 3.25171e-006
Heightened Def Con from 3.25171e-006 to 3.25171e-006
Heightened Def Con from 3.25171e-006 +++to 3.25171e-006
Heightened Def Con from 3.25171e-006 +++to 3.25171e-006
Heightened Def Con from 3.25171e-006 +to 3.25171e-006
Heightened Def Con from 3.25171e-006 +to 3.25171e-006
Heightened Def Con from 3.25171e-006 +to 3.25171e-006
Heightened Def Con from 3.25171e-006 +to 3.25171e-006
Heightened Def Con from 3.25171e-006 +to 3.25171e-006
Heightened Def Con from 3.25171e-006 +++to 3.25171e-006
Heightened Def Con from 3.25171e-006 +to 3.25171e-006
Heightened Def Con from 3.25171e-006 ++to 3.25171e-006
Heightened Def Con from 3.25171e-006 +to 3.25171e-006
Heightened Def Con from 3.25171e-006 +to 3.25171e-006
Heightened Def Con from 3.25171e-006 +to 3.25171e-006
Heightened Def Con from 3.25171e-006 ++to 3.25171e-006
Heightened Def Con from 3.25171e-006 +++++++++to 3.25171e-006
Heightened Def Con from 3.28982e-006 to 3.28982e-006
Heightened Def Con from 3.43982e-006 +to 3.43982e-006
Heightened Def Con from 3.43982e-006 to 3.43982e-006
Heightened Def Con from 3.46982e-006 to 3.46982e-006
Heightened Def Con from 3.46982e-006 +to 3.46982e-006
Heightened Def Con from 3.46982e-006 to 3.46982e-006
Heightened Def Con from 3.49982e-006 to 3.49982e-006
Heightened Def Con from 3.53482e-006 to 3.53482e-006
Heightened Def Con from 3.79171e-006 to 3.79171e-006
Heightened Def Con from 3.84982e-006 ++to 3.84982e-006
Heightened Def Con from 4.00982e-006 +to 4.00982e-006
Heightened Def Con from 4.00982e-006 to 4.00982e-006
Heightened Def Con from 4.12171e-006 +++to 4.12171e-006
Heightened Def Con from 4.12171e-006 to 4.12171e-006
Heightened Def Con from 4.12171e-006 ++to 4.12171e-006
Heightened Def Con from 4.12171e-006 +to 4.12171e-006
Heightened Def Con from 4.12171e-006 +to 4.12171e-006
Heightened Def Con from 4.12171e-006 +++++to 4.12171e-006
Heightened Def Con from 4.12171e-006 +to 4.12171e-006
Heightened Def Con from 4.12171e-006 +++to 4.12171e-006
Heightened Def Con from 4.12171e-006 +++to 4.12171e-006
Heightened Def Con from 4.12171e-006 +++++to 4.12171e-006
Heightened Def Con from 4.12171e-006 +to 4.12171e-006
Heightened Def Con from 4.12171e-006 +++to 4.12171e-006
Heightened Def Con from 4.12171e-006 +++to 4.12171e-006
Heightened Def Con from 4.12171e-006 +++to 4.12171e-006
Heightened Def Con from 4.12171e-006 +to 4.12171e-006
Heightened Def Con from 4.12171e-006 +++to 4.12171e-006
Heightened Def Con from 4.12171e-006 +++to 4.12171e-006
Heightened Def Con from 4.12171e-006 +++++++++to 4.12171e-006
Heightened Def Con from 4.25982e-006 to 4.25982e-006
Heightened Def Con from 4.25982e-006 to 4.25982e-006
Heightened Def Con from 4.26481e-006 to 4.26481e-006
Heightened Def Con from 4.28481e-006 ++++++to 4.28481e-006
Heightened Def Con from 4.34171e-006 to 4.34171e-006
Heightened Def Con from 4.34171e-006 ++to 4.34171e-006
Heightened Def Con from 4.34171e-006 +to 4.34171e-006
Heightened Def Con from 4.34171e-006 +to 4.34171e-006
Heightened Def Con from 4.34171e-006 +to 4.34171e-006
Heightened Def Con from 4.34171e-006 +++to 4.34171e-006
Heightened Def Con from 4.34171e-006 +++to 4.34171e-006
Heightened Def Con from 4.34171e-006 +to 4.34171e-006
Heightened Def Con from 4.34171e-006 +to 4.34171e-006
Heightened Def Con from 4.34171e-006 +++to 4.34171e-006
Heightened Def Con from 4.34171e-006 ++to 4.34171e-006
Heightened Def Con from 4.34171e-006 +to 4.34171e-006
Heightened Def Con from 4.34171e-006 ++to 4.34171e-006
Heightened Def Con from 4.34171e-006 +++to 4.34171e-006
Heightened Def Con from 4.34171e-006 +to 4.34171e-006
Heightened Def Con from 4.34171e-006 +++to 4.34171e-006
Heightened Def Con from 4.34171e-006 +++to 4.34171e-006
Heightened Def Con from 4.34171e-006 +to 4.34171e-006
Heightened Def Con from 4.34171e-006 +to 4.34171e-006
Heightened Def Con from 4.34171e-006 +to 4.34171e-006
Heightened Def Con from 4.34171e-006 +to 4.34171e-006
Heightened Def Con from 4.34171e-006 +++to 4.34171e-006
Heightened Def Con from 4.34171e-006 +to 4.34171e-006
Heightened Def Con from 4.34171e-006 +++to 4.34171e-006
Heightened Def Con from 4.34171e-006 +++to 4.34171e-006
Heightened Def Con from 4.34171e-006 +++to 4.34171e-006
Heightened Def Con from 4.34171e-006 +to 4.34171e-006
Heightened Def Con from 4.34171e-006 +to 4.34171e-006
Heightened Def Con from 4.34171e-006 +to 4.34171e-006
Heightened Def Con from 4.34171e-006 +++to 4.34171e-006
Heightened Def Con from 4.34171e-006 +++to 4.34171e-006
Heightened Def Con from 4.34171e-006 +to 4.34171e-006
Heightened Def Con from 4.34171e-006 +to 4.34171e-006
Heightened Def Con from 4.34171e-006 +to 4.34171e-006
Heightened Def Con from 4.34171e-006 +++to 4.34171e-006
Heightened Def Con from 4.34171e-006 +to 4.34171e-006
Heightened Def Con from 4.34171e-006 +to 4.34171e-006
Heightened Def Con from 4.34171e-006 +to 4.34171e-006
Heightened Def Con from 4.34171e-006 +to 4.34171e-006
Heightened Def Con from 4.34171e-006 +++to 4.34171e-006
Heightened Def Con from 4.34171e-006 +to 4.34171e-006
Heightened Def Con from 4.34171e-006 +to 4.34171e-006
Heightened Def Con from 4.34171e-006 +to 4.34171e-006
Heightened Def Con from 4.34171e-006 +++to 4.34171e-006
Heightened Def Con from 4.34171e-006 +to 4.34171e-006
Heightened Def Con from 4.34171e-006 +++to 4.34171e-006
Heightened Def Con from 4.34171e-006 +to 4.34171e-006
Heightened Def Con from 4.34171e-006 +to 4.34171e-006
Heightened Def Con from 4.34171e-006 +to 4.34171e-006
Heightened Def Con from 4.34171e-006 +to 4.34171e-006
Heightened Def Con from 4.34171e-006 +to 4.34171e-006
Heightened Def Con from 4.34171e-006 +++to 4.34171e-006
Heightened Def Con from 4.34171e-006 +++to 4.34171e-006
Heightened Def Con from 4.34171e-006 +to 4.34171e-006
Heightened Def Con from 4.34171e-006 +to 4.34171e-006
Heightened Def Con from 4.34171e-006 +++to 4.34171e-006
Heightened Def Con from 4.34171e-006 +to 4.34171e-006
Heightened Def Con from 4.34171e-006 +++to 4.34171e-006
Heightened Def Con from 4.34171e-006 +to 4.34171e-006
Heightened Def Con from 4.34171e-006 +to 4.34171e-006
Heightened Def Con from 4.34171e-006 +to 4.34171e-006
Heightened Def Con from 4.34171e-006 +++to 4.34171e-006
Heightened Def Con from 4.34171e-006 +to 4.34171e-006
Heightened Def Con from 4.34171e-006 +++to 4.34171e-006
Heightened Def Con from 4.34171e-006 +to 4.34171e-006
Heightened Def Con from 4.34171e-006 +to 4.34171e-006
Heightened Def Con from 4.34171e-006 +to 4.34171e-006
Heightened Def Con from 4.34171e-006 +to 4.34171e-006
Heightened Def Con from 4.34171e-006 +to 4.34171e-006
Heightened Def Con from 4.34171e-006 +to 4.34171e-006
Heightened Def Con from 4.34171e-006 +++to 4.34171e-006
Heightened Def Con from 4.34171e-006 +++++++++to 4.34171e-006
Heightened Def Con from 4.35982e-006 to 4.35982e-006
Heightened Def Con from 4.3617e-006 to 4.3617e-006
Heightened Def Con from 4.41171e-006 to 4.41171e-006
Heightened Def Con from 4.53982e-006 to 4.53982e-006
Heightened Def Con from 4.84171e-006 to 4.84171e-006
Heightened Def Con from 4.88982e-006 to 4.88982e-006
Heightened Def Con from 4.90982e-006 to 4.90982e-006
Heightened Def Con from 4.90982e-006 to 4.90982e-006
Heightened Def Con from 4.91171e-006 to 4.91171e-006
Heightened Def Con from 4.91171e-006 to 4.91171e-006
Heightened Def Con from 4.91171e-006 +to 4.91171e-006
Heightened Def Con from 4.91171e-006 +to 4.91171e-006
Heightened Def Con from 4.91171e-006 ++to 4.91171e-006
Heightened Def Con from 4.91171e-006 +to 4.91171e-006
Heightened Def Con from 4.91171e-006 +to 4.91171e-006
Heightened Def Con from 4.91171e-006 ++to 4.91171e-006
Heightened Def Con from 4.91171e-006 +to 4.91171e-006
Heightened Def Con from 4.91171e-006 ++to 4.91171e-006
Heightened Def Con from 4.91171e-006 +to 4.91171e-006
Heightened Def Con from 4.91171e-006 +to 4.91171e-006
Heightened Def Con from 4.91171e-006 +to 4.91171e-006
Heightened Def Con from 4.91171e-006 +to 4.91171e-006
Heightened Def Con from 4.91171e-006 +++to 4.91171e-006
Heightened Def Con from 4.91171e-006 +to 4.91171e-006
Heightened Def Con from 4.91171e-006 +to 4.91171e-006
Heightened Def Con from 4.91171e-006 +++++++++to 4.91171e-006
Heightened Def Con from 4.91982e-006 to 4.91982e-006
Heightened Def Con from 4.9317e-006 to 4.9317e-006
Heightened Def Con from 5.00664e-006 to 5.00664e-006
Heightened Def Con from 5.00664e-006 +to 5.00664e-006
Heightened Def Con from 5.00664e-006 +to 5.00664e-006
Heightened Def Con from 5.00664e-006 +to 5.00664e-006
Heightened Def Con from 5.00664e-006 +++to 5.00664e-006
Heightened Def Con from 5.00664e-006 +++to 5.00664e-006
Heightened Def Con from 5.00664e-006 ++to 5.00664e-006
Heightened Def Con from 5.00664e-006 +++to 5.00664e-006
Heightened Def Con from 5.00664e-006 +++to 5.00664e-006
Heightened Def Con from 5.00664e-006 +to 5.00664e-006
Heightened Def Con from 5.00664e-006 +to 5.00664e-006
Heightened Def Con from 5.00664e-006 +++to 5.00664e-006
Heightened Def Con from 5.00664e-006 +to 5.00664e-006
Heightened Def Con from 5.00664e-006 +to 5.00664e-006
Heightened Def Con from 5.00664e-006 +to 5.00664e-006
Heightened Def Con from 5.00664e-006 +++to 5.00664e-006
Heightened Def Con from 5.00664e-006 +++to 5.00664e-006
Heightened Def Con from 5.00664e-006 +to 5.00664e-006
Heightened Def Con from 5.00664e-006 +to 5.00664e-006
Heightened Def Con from 5.00664e-006 +to 5.00664e-006
Heightened Def Con from 5.00664e-006 +to 5.00664e-006
Heightened Def Con from 5.00664e-006 +++to 5.00664e-006
Heightened Def Con from 5.00664e-006 +++to 5.00664e-006
Heightened Def Con from 5.00664e-006 +to 5.00664e-006
Heightened Def Con from 5.00664e-006 +to 5.00664e-006
Heightened Def Con from 5.00664e-006 +++to 5.00664e-006
Heightened Def Con from 5.00664e-006 +to 5.00664e-006
Heightened Def Con from 5.00664e-006 +to 5.00664e-006
Heightened Def Con from 5.00664e-006 +++to 5.00664e-006
Heightened Def Con from 5.00664e-006 +to 5.00664e-006
Heightened Def Con from 5.00664e-006 +to 5.00664e-006
Heightened Def Con from 5.00664e-006 +to 5.00664e-006
Heightened Def Con from 5.00664e-006 +to 5.00664e-006
Heightened Def Con from 5.00664e-006 +to 5.00664e-006
Heightened Def Con from 5.00664e-006 +to 5.00664e-006
Heightened Def Con from 5.00664e-006 +to 5.00664e-006
Heightened Def Con from 5.00664e-006 +to 5.00664e-006
Heightened Def Con from 5.00664e-006 +++to 5.00664e-006
Heightened Def Con from 5.00664e-006 +to 5.00664e-006
Heightened Def Con from 5.00664e-006 +to 5.00664e-006
Heightened Def Con from 5.00664e-006 +to 5.00664e-006
Heightened Def Con from 5.00664e-006 +to 5.00664e-006
Heightened Def Con from 5.00664e-006 +++to 5.00664e-006
Heightened Def Con from 5.00664e-006 +to 5.00664e-006
Heightened Def Con from 5.00664e-006 +to 5.00664e-006
Heightened Def Con from 5.00664e-006 +to 5.00664e-006
Heightened Def Con from 5.00664e-006 +to 5.00664e-006
Heightened Def Con from 5.00664e-006 +to 5.00664e-006
Heightened Def Con from 5.00664e-006 +++to 5.00664e-006
Heightened Def Con from 5.00664e-006 +++to 5.00664e-006
Heightened Def Con from 5.00664e-006 ++to 5.00664e-006
Heightened Def Con from 5.00664e-006 +to 5.00664e-006
Heightened Def Con from 5.00664e-006 +to 5.00664e-006
Heightened Def Con from 5.00664e-006 +to 5.00664e-006
Heightened Def Con from 5.00664e-006 +to 5.00664e-006
Heightened Def Con from 5.00664e-006 +++to 5.00664e-006
Heightened Def Con from 5.00664e-006 +to 5.00664e-006
Heightened Def Con from 5.00664e-006 +to 5.00664e-006
Heightened Def Con from 5.00664e-006 +to 5.00664e-006
Heightened Def Con from 5.00664e-006 +++to 5.00664e-006
Heightened Def Con from 5.00664e-006 +to 5.00664e-006
Heightened Def Con from 5.00664e-006 +to 5.00664e-006
Heightened Def Con from 5.00664e-006 +++to 5.00664e-006
Heightened Def Con from 5.00664e-006 ++++to 5.00664e-006
Heightened Def Con from 5.00664e-006 +to 5.00664e-006
Heightened Def Con from 5.00664e-006 +to 5.00664e-006
Heightened Def Con from 5.00664e-006 +++to 5.00664e-006
Heightened Def Con from 5.00664e-006 +to 5.00664e-006
Heightened Def Con from 5.00664e-006 +++to 5.00664e-006
Heightened Def Con from 5.00664e-006 +to 5.00664e-006
Heightened Def Con from 5.00664e-006 +++++++++to 5.00664e-006
Heightened Def Con from 5.02982e-006 to 5.02982e-006
Heightened Def Con from 5.18982e-006 to 5.18982e-006
Heightened Def Con from 5.37982e-006 +to 5.37982e-006
Heightened Def Con from 5.37982e-006 +to 5.37982e-006
Heightened Def Con from 5.42481e-006 to 5.42481e-006
Heightened Def Con from 5.45171e-006 +to 5.45171e-006
Heightened Def Con from 5.45171e-006 +to 5.45171e-006
Heightened Def Con from 5.45171e-006 +to 5.45171e-006
Heightened Def Con from 5.45171e-006 ++to 5.45171e-006
Heightened Def Con from 5.45171e-006 +to 5.45171e-006
Heightened Def Con from 5.45171e-006 +to 5.45171e-006
Heightened Def Con from 5.45171e-006 +to 5.45171e-006
Heightened Def Con from 5.45171e-006 +++to 5.45171e-006
Heightened Def Con from 5.45171e-006 to 5.45171e-006
Heightened Def Con from 5.45171e-006 +to 5.45171e-006
Heightened Def Con from 5.45171e-006 +to 5.45171e-006
Heightened Def Con from 5.45171e-006 +++to 5.45171e-006
Heightened Def Con from 5.45171e-006 +to 5.45171e-006
Heightened Def Con from 5.45171e-006 ++to 5.45171e-006
Heightened Def Con from 5.45171e-006 +to 5.45171e-006
Heightened Def Con from 5.45171e-006 +to 5.45171e-006
Heightened Def Con from 5.45171e-006 +++to 5.45171e-006
Heightened Def Con from 5.45171e-006 +to 5.45171e-006
Heightened Def Con from 5.45171e-006 +++to 5.45171e-006
Heightened Def Con from 5.45171e-006 ++++to 5.45171e-006
Heightened Def Con from 5.45171e-006 +to 5.45171e-006
Heightened Def Con from 5.45171e-006 +to 5.45171e-006
Heightened Def Con from 5.45171e-006 +to 5.45171e-006
Heightened Def Con from 5.45171e-006 +to 5.45171e-006
Heightened Def Con from 5.45171e-006 +++to 5.45171e-006
Heightened Def Con from 5.45171e-006 +to 5.45171e-006
Heightened Def Con from 5.45171e-006 +to 5.45171e-006
Heightened Def Con from 5.45171e-006 ++++to 5.45171e-006
Heightened Def Con from 5.45171e-006 +to 5.45171e-006
Heightened Def Con from 5.45171e-006 +to 5.45171e-006
Heightened Def Con from 5.45171e-006 +to 5.45171e-006
Heightened Def Con from 5.45171e-006 +to 5.45171e-006
Heightened Def Con from 5.45171e-006 +++to 5.45171e-006
Heightened Def Con from 5.45171e-006 +to 5.45171e-006
Heightened Def Con from 5.45171e-006 +to 5.45171e-006
Heightened Def Con from 5.45171e-006 ++++to 5.45171e-006
Heightened Def Con from 5.45171e-006 +to 5.45171e-006
Heightened Def Con from 5.45171e-006 +to 5.45171e-006
Heightened Def Con from 5.45171e-006 +to 5.45171e-006
Heightened Def Con from 5.45171e-006 +to 5.45171e-006
Heightened Def Con from 5.45171e-006 +++to 5.45171e-006
Heightened Def Con from 5.45171e-006 +++++++++to 5.45171e-006
Heightened Def Con from 5.45983e-006 ++to 5.45983e-006
Heightened Def Con from 5.45983e-006 to 5.45983e-006
Heightened Def Con from 5.55982e-006 +++++to 5.55982e-006
Heightened Def Con from 5.56482e-006 to 5.56482e-006
Heightened Def Con from 5.56482e-006 to 5.56482e-006
Heightened Def Con from 5.66171e-006 to 5.66171e-006
Heightened Def Con from 5.70171e-006 to 5.70171e-006
Heightened Def Con from 5.70171e-006 +to 5.70171e-006
Heightened Def Con from 5.70171e-006 +++to 5.70171e-006
Heightened Def Con from 5.70171e-006 +++to 5.70171e-006
Heightened Def Con from 5.70171e-006 +to 5.70171e-006
Heightened Def Con from 5.70171e-006 +to 5.70171e-006
Heightened Def Con from 5.70171e-006 +to 5.70171e-006
Heightened Def Con from 5.70171e-006 +++to 5.70171e-006
Heightened Def Con from 5.70171e-006 +++to 5.70171e-006
Heightened Def Con from 5.70171e-006 +to 5.70171e-006
Heightened Def Con from 5.70171e-006 +to 5.70171e-006
Heightened Def Con from 5.70171e-006 +to 5.70171e-006
Heightened Def Con from 5.70171e-006 +to 5.70171e-006
Heightened Def Con from 5.70171e-006 ++to 5.70171e-006
Heightened Def Con from 5.70171e-006 +to 5.70171e-006
Heightened Def Con from 5.70171e-006 +to 5.70171e-006
Heightened Def Con from 5.70171e-006 +to 5.70171e-006
Heightened Def Con from 5.70171e-006 +to 5.70171e-006
Heightened Def Con from 5.70171e-006 +to 5.70171e-006
Heightened Def Con from 5.70171e-006 +to 5.70171e-006
Heightened Def Con from 5.70171e-006 ++++++++to 5.70171e-006
Heightened Def Con from 5.70982e-006 to 5.70982e-006
Heightened Def Con from 5.71482e-006 to 5.71482e-006
Heightened Def Con from 5.85982e-006 to 5.85982e-006
Heightened Def Con from 5.86481e-006 ++++++to 5.86481e-006
Heightened Def Con from 5.86481e-006 to 5.86481e-006
Heightened Def Con from 5.86665e-006 to 5.86665e-006
Heightened Def Con from 5.97171e-006 to 5.97171e-006
Heightened Def Con from 6.15982e-006 to 6.15982e-006
Heightened Def Con from 6.28171e-006 to 6.28171e-006
Heightened Def Con from 6.36982e-006 to 6.36982e-006
Heightened Def Con from 6.41982e-006 to 6.41982e-006
Heightened Def Con from 6.42481e-006 +++++to 6.42481e-006
Heightened Def Con from 6.69982e-006 +to 6.69982e-006
Heightened Def Con from 6.74171e-006 to 6.74171e-006
Heightened Def Con from 6.75982e-006 to 6.75982e-006
Heightened Def Con from 6.7617e-006 to 6.7617e-006
Heightened Def Con from 6.78982e-006 +to 6.78982e-006
Heightened Def Con from 6.78982e-006 to 6.78982e-006
Heightened Def Con from 6.78982e-006 to 6.78982e-006
Heightened Def Con from 6.79171e-006 to 6.79171e-006
Heightened Def Con from 6.79171e-006 to 6.79171e-006
Heightened Def Con from 7.08171e-006 to 7.08171e-006
Heightened Def Con from 7.1217e-006 to 7.1217e-006
Heightened Def Con from 7.1217e-006 to 7.1217e-006
Heightened Def Con from 7.14982e-006 to 7.14982e-006
Heightened Def Con from 7.14982e-006 to 7.14982e-006
Heightened Def Con from 7.32982e-006 to 7.32982e-006
Heightened Def Con from 7.39982e-006 to 7.39982e-006
Heightened Def Con from 7.45982e-006 to 7.45982e-006
Heightened Def Con from 7.46982e-006 to 7.46982e-006
Heightened Def Con from 7.56982e-006 +++++to 7.56982e-006
Heightened Def Con from 7.5717e-006 to 7.5717e-006
Heightened Def Con from 7.5717e-006 to 7.5717e-006
Heightened Def Con from 7.5717e-006 to 7.5717e-006
Heightened Def Con from 7.57982e-006 to 7.57982e-006
Heightened Def Con from 7.57982e-006 ++to 7.57982e-006
Heightened Def Con from 7.57982e-006 to 7.57982e-006
Heightened Def Con from 7.61982e-006 to 7.61982e-006
Heightened Def Con from 7.6217e-006 to 7.6217e-006
Heightened Def Con from 7.6217e-006 +to 7.6217e-006
Heightened Def Con from 7.6217e-006 ++to 7.6217e-006
Heightened Def Con from 7.6217e-006 +++to 7.6217e-006
Heightened Def Con from 7.6217e-006 +++to 7.6217e-006
Heightened Def Con from 7.6217e-006 +to 7.6217e-006
Heightened Def Con from 7.6217e-006 +to 7.6217e-006
Heightened Def Con from 7.6217e-006 +to 7.6217e-006
Heightened Def Con from 7.6217e-006 ++++++++to 7.6217e-006
Heightened Def Con from 7.72982e-006 to 7.72982e-006
Heightened Def Con from 7.99171e-006 to 7.99171e-006
Heightened Def Con from 7.99171e-006 to 7.99171e-006
Heightened Def Con from 8.39481e-006 ++++to 8.39481e-006
Heightened Def Con from 8.45982e-006 ++++to 8.45982e-006
Heightened Def Con from 8.50171e-006 to 8.50171e-006
Heightened Def Con from 8.50983e-006 to 8.50983e-006
Heightened Def Con from 8.50983e-006 ++to 8.50983e-006
Heightened Def Con from 8.55982e-006 +to 8.55982e-006
Heightened Def Con from 8.55982e-006 to 8.55982e-006
Heightened Def Con from 8.56171e-006 to 8.56171e-006
Heightened Def Con from 8.56171e-006 to 8.56171e-006
Heightened Def Con from 8.61982e-006 to 8.61982e-006
Heightened Def Con from 8.63982e-006 +++++to 8.63982e-006
Heightened Def Con from 8.63982e-006 to 8.63982e-006
Heightened Def Con from 8.73171e-006 +++to 8.73171e-006
Heightened Def Con from 8.73171e-006 +++to 8.73171e-006
Heightened Def Con from 8.73171e-006 +to 8.73171e-006
Heightened Def Con from 8.73171e-006 +to 8.73171e-006
Heightened Def Con from 8.73171e-006 +to 8.73171e-006
Heightened Def Con from 8.73171e-006 +++to 8.73171e-006
Heightened Def Con from 8.73171e-006 +to 8.73171e-006
Heightened Def Con from 8.73171e-006 +to 8.73171e-006
Heightened Def Con from 8.73171e-006 +to 8.73171e-006
Heightened Def Con from 8.73171e-006 +to 8.73171e-006
Heightened Def Con from 8.73171e-006 +++to 8.73171e-006
Heightened Def Con from 8.73171e-006 ++to 8.73171e-006
Heightened Def Con from 8.73171e-006 +to 8.73171e-006
Heightened Def Con from 8.73171e-006 +to 8.73171e-006
Heightened Def Con from 8.73171e-006 +++to 8.73171e-006
Heightened Def Con from 8.73171e-006 +to 8.73171e-006
Heightened Def Con from 8.73171e-006 +to 8.73171e-006
Heightened Def Con from 8.73171e-006 +to 8.73171e-006
Heightened Def Con from 8.73171e-006 +to 8.73171e-006
Heightened Def Con from 8.73171e-006 +to 8.73171e-006
Heightened Def Con from 8.73171e-006 +++to 8.73171e-006
Heightened Def Con from 8.73171e-006 +++to 8.73171e-006
Heightened Def Con from 8.73171e-006 ++to 8.73171e-006
Heightened Def Con from 8.73171e-006 +to 8.73171e-006
Heightened Def Con from 8.73171e-006 +to 8.73171e-006
Heightened Def Con from 8.73171e-006 +to 8.73171e-006
Heightened Def Con from 8.73171e-006 +to 8.73171e-006
Heightened Def Con from 8.73171e-006 +to 8.73171e-006
Heightened Def Con from 8.73171e-006 +to 8.73171e-006
Heightened Def Con from 8.73171e-006 +++to 8.73171e-006
Heightened Def Con from 8.73171e-006 +++to 8.73171e-006
Heightened Def Con from 8.73171e-006 +++++++++to 8.73171e-006
Heightened Def Con from 8.73983e-006 +to 8.73983e-006
Heightened Def Con from 8.77171e-006 to 8.77171e-006
Heightened Def Con from 8.7817e-006 to 8.7817e-006
Heightened Def Con from 8.78481e-006 to 8.78481e-006
Heightened Def Con from 8.89982e-006 to 8.89982e-006
Heightened Def Con from 8.89982e-006 to 8.89982e-006
Heightened Def Con from 8.90171e-006 to 8.90171e-006
Heightened Def Con from 8.92467e-006 to 8.92467e-006

Date: Sun Jun 15 23:15:42 2025
Total elapsed time: 4.542 seconds.

tnom = 27
temp = 27
method = trap
totiter = 505648
traniter = 500574
tranpoints = 83594
accept = 52561
rejected = 32487
matrix size = 116
fillins = 168
solver = Normal
Thread vector: 4.9/3.8[4] 3.1/3.1[1] 2.0/2.2[1] 0.2/1.3[1]  2592/500
Matrix Compiler1: 12.76 KB object code size  2.0/1.0/[0.7]
Matrix Compiler2: 12.84 KB object code size  0.8/0.8/[0.5]

