Circuit: * C:\users\ostoja\Desktop\Elektronika\diff_sonde\DS100M08KV\simulacije\dc_analysis.asc

WARNING: Node N002 is floating.
WARNING: Node N003 is floating.
WARNING: Node N004 is floating.
WARNING: Node N020 is floating.
WARNING: Node N021 is floating.
WARNING: Node N022 is floating.

WARNING: Less than two connections to node 2.5V.  This node is used by V1.
WARNING: Less than two connections to node -2.5V.  This node is used by V2.
WARNING: Less than two connections to node 9V.  This node is used by V4.
WARNING: Less than two connections to node -9V.  This node is used by V6.
Direct Newton iteration for .op point succeeded.
Changing Tseed to 9.76562e-010
Changing Tseed to 9.76562e-012
Heightened Def Con from 1.94973e-007 to 1.94973e-007
Heightened Def Con from 3.9497e-007 +++to 3.9497e-007
Heightened Def Con from 3.9497e-007 ++++to 3.9497e-007
Heightened Def Con from 8.45106e-007 +++++to 8.45106e-007
Heightened Def Con from 1.34643e-006 to 1.34643e-006
Heightened Def Con from 1.64511e-006 +++++to 1.64511e-006
Heightened Def Con from 1.69496e-006 +++to 1.69496e-006
Heightened Def Con from 1.69496e-006 to 1.69496e-006
Heightened Def Con from 1.74511e-006 ++++to 1.74511e-006
Heightened Def Con from 1.74511e-006 +++++to 1.74511e-006
Heightened Def Con from 1.89498e-006 to 1.89498e-006
Heightened Def Con from 1.89498e-006 ++++to 1.89498e-006
Heightened Def Con from 1.99497e-006 +++to 1.99497e-006
Heightened Def Con from 1.99497e-006 to 1.99497e-006
Heightened Def Con from 2.8451e-006 +++++to 2.8451e-006
Heightened Def Con from 2.89636e-006 to 2.89636e-006
Heightened Def Con from 2.89636e-006 to 2.89636e-006
Heightened Def Con from 2.89636e-006 to 2.89636e-006
Heightened Def Con from 2.89636e-006 to 2.89636e-006
Heightened Def Con from 2.89636e-006 to 2.89636e-006
Heightened Def Con from 3.04511e-006 ++++++to 3.04511e-006
Heightened Def Con from 3.14511e-006 to 3.14511e-006
Heightened Def Con from 3.9451e-006 ++++to 3.9451e-006
Heightened Def Con from 4.39497e-006 +++to 4.39497e-006
Heightened Def Con from 4.39497e-006 ++++to 4.39497e-006
Heightened Def Con from 4.7451e-006 +++++to 4.7451e-006
Heightened Def Con from 5.09497e-006 ++++to 5.09497e-006
Heightened Def Con from 5.54511e-006 to 5.54511e-006
Heightened Def Con from 5.74511e-006 +++++to 5.74511e-006
Heightened Def Con from 5.89497e-006 +++++to 5.89497e-006
Heightened Def Con from 5.99497e-006 ++++to 5.99497e-006
Heightened Def Con from 6.29497e-006 ++++to 6.29497e-006
Heightened Def Con from 6.29497e-006 to 6.29497e-006
Heightened Def Con from 6.5465e-006 to 6.5465e-006
Heightened Def Con from 7.49496e-006 ++++to 7.49496e-006
Heightened Def Con from 7.9451e-006 ++++to 7.9451e-006
Heightened Def Con from 8.04511e-006 to 8.04511e-006
Heightened Def Con from 8.04511e-006 +++++to 8.04511e-006

Date: Sat Oct 18 22:44:04 2025
Total elapsed time: 0.614 seconds.

tnom = 27
temp = 27
method = trap
totiter = 83395
traniter = 83358
tranpoints = 14923
accept = 9816
rejected = 5241
matrix size = 97
fillins = 53
solver = Normal
Matrix Compiler1: 6.40 KB object code size  2.0/0.7/[0.4]
Matrix Compiler2: 8.75 KB object code size  1.2/0.9/[0.4]

